# CHD: Time-Variant Specified-Head package file created on 10/23/2023 by ModelMuse version 5.1.1.0.
# CHD: Time-Variant Specified-Head package file created on 10/4/2023 by ModelMuse version 4.3.0.0.
# CHD: Time-Variant Specified-Head package file created on 3/14/2023 by ModelMuse version 5.0.0.0.
# CHD: Time-Variant Specified-Head package file created on 10/13/2022 by ModelMuse version 4.3.0.0.
# CHD: Time-Variant Specified-Head package file created on 10/12/2022 by ModelMuse version 4.3.0.0.
# CHD: Time-Variant Specified-Head package file created on 10/4/2022 by ModelMuse version 4.3.0.0.
# CHD: Time-Variant Specified-Head package file created on 10/1/2022 by ModelMuse version 4.3.0.0.
# CHD: Time-Variant Specified-Head package file created on 9/22/2022 by ModelMuse version 5.0.0.0.
# CHD: Time-Variant Specified-Head package file created on 9/19/2022 by ModelMuse version 4.3.0.0.
# CHD: Time-Variant Specified-Head package file created on 9/1/2022 by ModelMuse version 4.3.0.0.
# CHD: Time-Variant Specified-Head package file created on 8/22/2022 by ModelMuse version 4.3.0.0.
# CHD: Time-Variant Specified-Head package file created on 8/19/2022 by ModelMuse version 4.3.0.0.
# CHD: Time-Variant Specified-Head package file created on 7/22/2022 by ModelMuse version 4.3.0.0.
# CHD: Time-Variant Specified-Head package file created on 7/14/2022 by ModelMuse version 5.0.0.0.
# CHD: Time-Variant Specified-Head package file created on 7/12/2022 by ModelMuse version 5.0.0.0.
# CHD: Time-Variant Specified-Head package file created on 15/06/2020 by ModelMuse version 4.2.0.0.
# CHD: Time-Variant Specified-Head package file created on 25-Mar-20 by ModelMuse version 4.1.0.0.
# CHD: Time-Variant Specified-Head package file created on 12/13/2019 by ModelMuse version 4.1.0.0.
# MODFLOW2000 Constant-Head Boundary Package (CHD)
    40 AUXILIARY IFACE # MXACTC Option
    40     0 # Data Set 5: ITMP NP Stress period 1
     1   160     5  0.000000000000E+000   0.000000000000E+000      0 # Data Set 6: Layer Row Column Shead Ehead IFACE
     1   161     5  0.000000000000E+000   0.000000000000E+000      0 # Data Set 6: Layer Row Column Shead Ehead IFACE
     1   162     5  0.000000000000E+000   0.000000000000E+000      0 # Data Set 6: Layer Row Column Shead Ehead IFACE
     1   163     5  0.000000000000E+000   0.000000000000E+000      0 # Data Set 6: Layer Row Column Shead Ehead IFACE
     1   158     6  0.000000000000E+000   0.000000000000E+000      0 # Data Set 6: Layer Row Column Shead Ehead IFACE
     1   159     6  0.000000000000E+000   0.000000000000E+000      0 # Data Set 6: Layer Row Column Shead Ehead IFACE
     1   160     6  0.000000000000E+000   0.000000000000E+000      0 # Data Set 6: Layer Row Column Shead Ehead IFACE
     1   161     6  0.000000000000E+000   0.000000000000E+000      0 # Data Set 6: Layer Row Column Shead Ehead IFACE
     1   162     6  0.000000000000E+000   0.000000000000E+000      0 # Data Set 6: Layer Row Column Shead Ehead IFACE
     1   163     6  0.000000000000E+000   0.000000000000E+000      0 # Data Set 6: Layer Row Column Shead Ehead IFACE
     1   148     7  0.000000000000E+000   0.000000000000E+000      0 # Data Set 6: Layer Row Column Shead Ehead IFACE
     1   149     7  0.000000000000E+000   0.000000000000E+000      0 # Data Set 6: Layer Row Column Shead Ehead IFACE
     1   150     7  0.000000000000E+000   0.000000000000E+000      0 # Data Set 6: Layer Row Column Shead Ehead IFACE
     1   151     7  0.000000000000E+000   0.000000000000E+000      0 # Data Set 6: Layer Row Column Shead Ehead IFACE
     1   152     7  0.000000000000E+000   0.000000000000E+000      0 # Data Set 6: Layer Row Column Shead Ehead IFACE
     1   153     7  0.000000000000E+000   0.000000000000E+000      0 # Data Set 6: Layer Row Column Shead Ehead IFACE
     1   154     7  0.000000000000E+000   0.000000000000E+000      0 # Data Set 6: Layer Row Column Shead Ehead IFACE
     1   155     7  0.000000000000E+000   0.000000000000E+000      0 # Data Set 6: Layer Row Column Shead Ehead IFACE
     1   156     7  0.000000000000E+000   0.000000000000E+000      0 # Data Set 6: Layer Row Column Shead Ehead IFACE
     1   157     7  0.000000000000E+000   0.000000000000E+000      0 # Data Set 6: Layer Row Column Shead Ehead IFACE
     1   158     7  0.000000000000E+000   0.000000000000E+000      0 # Data Set 6: Layer Row Column Shead Ehead IFACE
     1   159     7  0.000000000000E+000   0.000000000000E+000      0 # Data Set 6: Layer Row Column Shead Ehead IFACE
     1   160     7  0.000000000000E+000   0.000000000000E+000      0 # Data Set 6: Layer Row Column Shead Ehead IFACE
     1   161     7  0.000000000000E+000   0.000000000000E+000      0 # Data Set 6: Layer Row Column Shead Ehead IFACE
     1   151     8  0.000000000000E+000   0.000000000000E+000      0 # Data Set 6: Layer Row Column Shead Ehead IFACE
     1   152     8  0.000000000000E+000   0.000000000000E+000      0 # Data Set 6: Layer Row Column Shead Ehead IFACE
     1   153     8  0.000000000000E+000   0.000000000000E+000      0 # Data Set 6: Layer Row Column Shead Ehead IFACE
     1   154     8  0.000000000000E+000   0.000000000000E+000      0 # Data Set 6: Layer Row Column Shead Ehead IFACE
     1   155     8  0.000000000000E+000   0.000000000000E+000      0 # Data Set 6: Layer Row Column Shead Ehead IFACE
     1   156     8  0.000000000000E+000   0.000000000000E+000      0 # Data Set 6: Layer Row Column Shead Ehead IFACE
     1   157     8  0.000000000000E+000   0.000000000000E+000      0 # Data Set 6: Layer Row Column Shead Ehead IFACE
     1   158     8  0.000000000000E+000   0.000000000000E+000      0 # Data Set 6: Layer Row Column Shead Ehead IFACE
     1   159     8  0.000000000000E+000   0.000000000000E+000      0 # Data Set 6: Layer Row Column Shead Ehead IFACE
     1   160     8  0.000000000000E+000   0.000000000000E+000      0 # Data Set 6: Layer Row Column Shead Ehead IFACE
     1   154     9  0.000000000000E+000   0.000000000000E+000      0 # Data Set 6: Layer Row Column Shead Ehead IFACE
     1   155     9  0.000000000000E+000   0.000000000000E+000      0 # Data Set 6: Layer Row Column Shead Ehead IFACE
     1   156     9  0.000000000000E+000   0.000000000000E+000      0 # Data Set 6: Layer Row Column Shead Ehead IFACE
     1   157     9  0.000000000000E+000   0.000000000000E+000      0 # Data Set 6: Layer Row Column Shead Ehead IFACE
     1   158     9  0.000000000000E+000   0.000000000000E+000      0 # Data Set 6: Layer Row Column Shead Ehead IFACE
     1   159     9  0.000000000000E+000   0.000000000000E+000      0 # Data Set 6: Layer Row Column Shead Ehead IFACE
    -1     0 # Data Set 5: ITMP NP Stress period 2
