# RIV: River package file created on 10/23/2023 by ModelMuse version 5.1.1.0.
# RIV: River package file created on 10/4/2023 by ModelMuse version 4.3.0.0.
# RIV: River package file created on 3/14/2023 by ModelMuse version 5.0.0.0.
# RIV: River package file created on 10/13/2022 by ModelMuse version 4.3.0.0.
# RIV: River package file created on 10/12/2022 by ModelMuse version 4.3.0.0.
# RIV: River package file created on 10/4/2022 by ModelMuse version 4.3.0.0.
# RIV: River package file created on 10/1/2022 by ModelMuse version 4.3.0.0.
# RIV: River package file created on 9/22/2022 by ModelMuse version 5.0.0.0.
# RIV: River package file created on 9/19/2022 by ModelMuse version 4.3.0.0.
# RIV: River package file created on 9/1/2022 by ModelMuse version 4.3.0.0.
# RIV: River package file created on 8/22/2022 by ModelMuse version 4.3.0.0.
# RIV: River package file created on 8/19/2022 by ModelMuse version 4.3.0.0.
# RIV: River package file created on 7/22/2022 by ModelMuse version 4.3.0.0.
# RIV: River package file created on 7/14/2022 by ModelMuse version 5.0.0.0.
# RIV: River package file created on 7/12/2022 by ModelMuse version 5.0.0.0.
# RIV:	River	package	file	created	on	15/06/2020	by	ModelMuse	version	4.2.0.0.
# RIV:	River	package	file	created	on	25-Mar-20	by	ModelMuse	version	4.1.0.0.
# RIV:	River	package	file	created	on	12/13/2019	by	ModelMuse	version	4.1.0.0.
# MODFLOW2000	River	Package
  1665     9 AUXILIARY IFACE # DataSet 2: MXACTC IRIVCB Option
  1665     0 # Data Set 5: ITMP NP Stress period 1
     1   161     9  7.682000000000E+000   1.085000000000E+003   6.682000000000E+000      0 # Data Set 6: Layer Row Column Stage Cond Rbot IFACE
     1   154    10  1.198600000000E+001   2.140000000000E+002   1.098600000000E+001      0 # Data Set 6: Layer Row Column Stage Cond Rbot IFACE
     1   155    10  9.401000000000E+000   2.140000000000E+002   8.401000000000E+000      0 # Data Set 6: Layer Row Column Stage Cond Rbot IFACE
     1   161    10  8.302000000000E+000   1.030000000000E+003   7.302000000000E+000      0 # Data Set 6: Layer Row Column Stage Cond Rbot IFACE
     1   154    11  1.037400000000E+001   2.140000000000E+002   9.374000000000E+000      0 # Data Set 6: Layer Row Column Stage Cond Rbot IFACE
     1   155    11  9.144000000000E+000   2.140000000000E+002   8.144000000000E+000      0 # Data Set 6: Layer Row Column Stage Cond Rbot IFACE
     1   162    11  6.101000000000E+000   1.030000000000E+003   5.101000000000E+000      0 # Data Set 6: Layer Row Column Stage Cond Rbot IFACE
     1   154    12  1.227100000000E+001   2.140000000000E+002   1.127100000000E+001      0 # Data Set 6: Layer Row Column Stage Cond Rbot IFACE
     1   155    12  9.160000000000E+000   2.140000000000E+002   8.159000000000E+000      0 # Data Set 6: Layer Row Column Stage Cond Rbot IFACE
     1   163    12  6.595000000000E+000   1.030000000000E+003   5.595000000000E+000      0 # Data Set 6: Layer Row Column Stage Cond Rbot IFACE
     1   154    13  2.324600000000E+001   2.130000000000E+002   2.224600000000E+001      0 # Data Set 6: Layer Row Column Stage Cond Rbot IFACE
     1   155    13  2.402400000000E+001   2.130000000000E+002   2.302400000000E+001      0 # Data Set 6: Layer Row Column Stage Cond Rbot IFACE
     1   164    13  9.969000000000E+000   1.025000000000E+003   8.969000000000E+000      0 # Data Set 6: Layer Row Column Stage Cond Rbot IFACE
     1   154    14  2.700900000000E+001   2.130000000000E+002   2.600900000000E+001      0 # Data Set 6: Layer Row Column Stage Cond Rbot IFACE
     1   155    14  2.108000000000E+001   2.130000000000E+002   2.008000000000E+001      0 # Data Set 6: Layer Row Column Stage Cond Rbot IFACE
     1   164    14  1.098400000000E+001   1.025000000000E+003   9.984000000000E+000      0 # Data Set 6: Layer Row Column Stage Cond Rbot IFACE
     1   154    15  3.013900000000E+001   2.120000000000E+002   2.913900000000E+001      0 # Data Set 6: Layer Row Column Stage Cond Rbot IFACE
     1   155    15  1.980800000000E+001   2.120000000000E+002   1.880800000000E+001      0 # Data Set 6: Layer Row Column Stage Cond Rbot IFACE
     1   165    15  9.329000000000E+000   1.025000000000E+003   8.329000000000E+000      0 # Data Set 6: Layer Row Column Stage Cond Rbot IFACE
     1   153    16  3.608300000000E+001   2.120000000000E+002   3.508300000000E+001      0 # Data Set 6: Layer Row Column Stage Cond Rbot IFACE
     1   154    16  1.903300000000E+001   2.120000000000E+002   1.803300000000E+001      0 # Data Set 6: Layer Row Column Stage Cond Rbot IFACE
     1   166    16  8.140000000000E+000   1.025000000000E+003   7.140000000000E+000      0 # Data Set 6: Layer Row Column Stage Cond Rbot IFACE
     1   152    17  2.781800000000E+001   2.040000000000E+002   2.681800000000E+001      0 # Data Set 6: Layer Row Column Stage Cond Rbot IFACE
     1   153    17  2.454300000000E+001   2.040000000000E+002   2.354300000000E+001      0 # Data Set 6: Layer Row Column Stage Cond Rbot IFACE
     1   166    17  9.977000000000E+000   1.025000000000E+003   8.977000000000E+000      0 # Data Set 6: Layer Row Column Stage Cond Rbot IFACE
     1   151    18  1.050300000000E+001   2.030000000000E+002   9.503000000000E+000      0 # Data Set 6: Layer Row Column Stage Cond Rbot IFACE
     1   152    18  1.609800000000E+001   2.040000000000E+002   1.509800000000E+001      0 # Data Set 6: Layer Row Column Stage Cond Rbot IFACE
     1   165    18  1.550100000000E+001   1.025000000000E+003   1.450100000000E+001      0 # Data Set 6: Layer Row Column Stage Cond Rbot IFACE
     1   166    18  9.337000000000E+000   1.025000000000E+003   8.337000000000E+000      0 # Data Set 6: Layer Row Column Stage Cond Rbot IFACE
     1   149    19  1.269000000000E+001   2.090000000000E+002   1.169000000000E+001      0 # Data Set 6: Layer Row Column Stage Cond Rbot IFACE
     1   150    19  1.175300000000E+001   2.030000000000E+002   1.075300000000E+001      0 # Data Set 6: Layer Row Column Stage Cond Rbot IFACE
     1   151    19  1.202300000000E+001   2.030000000000E+002   1.102300000000E+001      0 # Data Set 6: Layer Row Column Stage Cond Rbot IFACE
     1   165    19  1.846900000000E+001   1.025000000000E+003   1.746900000000E+001      0 # Data Set 6: Layer Row Column Stage Cond Rbot IFACE
     1   166    19  1.181100000000E+001   1.025000000000E+003   1.081100000000E+001      0 # Data Set 6: Layer Row Column Stage Cond Rbot IFACE
     1   167    19  1.004900000000E+001   1.025000000000E+003   9.049000000000E+000      0 # Data Set 6: Layer Row Column Stage Cond Rbot IFACE
     1   148    20  1.313100000000E+001   2.080000000000E+002   1.213100000000E+001      0 # Data Set 6: Layer Row Column Stage Cond Rbot IFACE
     1   149    20  1.158600000000E+001   2.090000000000E+002   1.058600000000E+001      0 # Data Set 6: Layer Row Column Stage Cond Rbot IFACE
     1   167    20  1.016200000000E+001   1.020000000000E+003   9.162000000000E+000      0 # Data Set 6: Layer Row Column Stage Cond Rbot IFACE
     1   147    21  1.241200000000E+001   2.070000000000E+002   1.141200000000E+001      0 # Data Set 6: Layer Row Column Stage Cond Rbot IFACE
     1   148    21  1.518700000000E+001   2.080000000000E+002   1.418700000000E+001      0 # Data Set 6: Layer Row Column Stage Cond Rbot IFACE
     1   167    21  1.176900000000E+001   1.020000000000E+003   1.076900000000E+001      0 # Data Set 6: Layer Row Column Stage Cond Rbot IFACE
     1   147    22  1.786700000000E+001   2.070000000000E+002   1.686700000000E+001      0 # Data Set 6: Layer Row Column Stage Cond Rbot IFACE
     1   167    22  1.024100000000E+001   1.020000000000E+003   9.241000000000E+000      0 # Data Set 6: Layer Row Column Stage Cond Rbot IFACE
     1   144    23  1.398000000000E+001   2.070000000000E+002   1.298000000000E+001      0 # Data Set 6: Layer Row Column Stage Cond Rbot IFACE
     1   146    23  1.301400000000E+001   2.070000000000E+002   1.201400000000E+001      0 # Data Set 6: Layer Row Column Stage Cond Rbot IFACE
     1   166    23  1.109400000000E+001   1.020000000000E+003   1.009400000000E+001      0 # Data Set 6: Layer Row Column Stage Cond Rbot IFACE
     1   145    24  1.405600000000E+001   2.070000000000E+002   1.305600000000E+001      0 # Data Set 6: Layer Row Column Stage Cond Rbot IFACE
     1   166    24  1.340800000000E+001   1.020000000000E+003   1.240800000000E+001      0 # Data Set 6: Layer Row Column Stage Cond Rbot IFACE
     1   144    25  1.399200000000E+001   2.070000000000E+002   1.299200000000E+001      0 # Data Set 6: Layer Row Column Stage Cond Rbot IFACE
     1   145    25  1.282300000000E+001   2.070000000000E+002   1.182300000000E+001      0 # Data Set 6: Layer Row Column Stage Cond Rbot IFACE
     1   166    25  1.067400000000E+001   1.020000000000E+003   9.674000000000E+000      0 # Data Set 6: Layer Row Column Stage Cond Rbot IFACE
     1   144    26  1.364800000000E+001   2.070000000000E+002   1.264800000000E+001      0 # Data Set 6: Layer Row Column Stage Cond Rbot IFACE
     1   145    26  1.708100000000E+001   2.070000000000E+002   1.608100000000E+001      0 # Data Set 6: Layer Row Column Stage Cond Rbot IFACE
     1   162    26  2.369500000000E+001   1.015000000000E+003   2.269500000000E+001      0 # Data Set 6: Layer Row Column Stage Cond Rbot IFACE
     1   167    26  1.220900000000E+001   1.020000000000E+003   1.120900000000E+001      0 # Data Set 6: Layer Row Column Stage Cond Rbot IFACE
     1   168    26  1.215600000000E+001   1.015000000000E+003   1.115600000000E+001      0 # Data Set 6: Layer Row Column Stage Cond Rbot IFACE
     1   140    27  1.825000000000E+001   4.040000000000E+002   1.725000000000E+001      0 # Data Set 6: Layer Row Column Stage Cond Rbot IFACE
     1   143    27  1.529300000000E+001   2.060000000000E+002   1.429300000000E+001      0 # Data Set 6: Layer Row Column Stage Cond Rbot IFACE
     1   161    27  7.007800000000E+001   1.015000000000E+003   6.907800000000E+001      0 # Data Set 6: Layer Row Column Stage Cond Rbot IFACE
     1   169    27  1.154500000000E+001   1.015000000000E+003   1.054500000000E+001      0 # Data Set 6: Layer Row Column Stage Cond Rbot IFACE
     1   142    28  1.532900000000E+001   2.060000000000E+002   1.432900000000E+001      0 # Data Set 6: Layer Row Column Stage Cond Rbot IFACE
     1   161    28  7.176800000000E+001   1.015000000000E+003   7.076800000000E+001      0 # Data Set 6: Layer Row Column Stage Cond Rbot IFACE
     1   170    28  1.325500000000E+001   1.015000000000E+003   1.225500000000E+001      0 # Data Set 6: Layer Row Column Stage Cond Rbot IFACE
     1   140    29  1.740800000000E+001   1.818000000000E+003   1.640800000000E+001      0 # Data Set 6: Layer Row Column Stage Cond Rbot IFACE
     1   141    29  1.634700000000E+001   4.120000000000E+002   1.534700000000E+001      0 # Data Set 6: Layer Row Column Stage Cond Rbot IFACE
     1   168    29  1.250600000000E+001   1.015000000000E+003   1.150600000000E+001      0 # Data Set 6: Layer Row Column Stage Cond Rbot IFACE
     1   170    29  1.460000000000E+001   1.015000000000E+003   1.360000000000E+001      0 # Data Set 6: Layer Row Column Stage Cond Rbot IFACE
     1   139    30  1.748300000000E+001   1.818000000000E+003   1.648300000000E+001      0 # Data Set 6: Layer Row Column Stage Cond Rbot IFACE
     1   163    30  5.691700000000E+001   1.015000000000E+003   5.591700000000E+001      0 # Data Set 6: Layer Row Column Stage Cond Rbot IFACE
     1   171    30  1.390600000000E+001   1.015000000000E+003   1.290600000000E+001      0 # Data Set 6: Layer Row Column Stage Cond Rbot IFACE
     1   138    31  1.853600000000E+001   1.845000000000E+003   1.753600000000E+001      0 # Data Set 6: Layer Row Column Stage Cond Rbot IFACE
     1   145    31  6.151600000000E+001   2.020000000000E+002   6.051600000000E+001      0 # Data Set 6: Layer Row Column Stage Cond Rbot IFACE
     1   146    31  4.838900000000E+001   2.020000000000E+002   4.738900000000E+001      0 # Data Set 6: Layer Row Column Stage Cond Rbot IFACE
     1   163    31  6.531900000000E+001   1.015000000000E+003   6.431900000000E+001      0 # Data Set 6: Layer Row Column Stage Cond Rbot IFACE
     1   170    31  1.538700000000E+001   1.015000000000E+003   1.438700000000E+001      0 # Data Set 6: Layer Row Column Stage Cond Rbot IFACE
     1   172    31  1.262300000000E+001   1.015000000000E+003   1.162300000000E+001      0 # Data Set 6: Layer Row Column Stage Cond Rbot IFACE
     1   137    32  1.760100000000E+001   1.845000000000E+003   1.660100000000E+001      0 # Data Set 6: Layer Row Column Stage Cond Rbot IFACE
     1   145    32  7.193100000000E+001   2.020000000000E+002   7.093100000000E+001      0 # Data Set 6: Layer Row Column Stage Cond Rbot IFACE
     1   146    32  4.316500000000E+001   2.020000000000E+002   4.216500000000E+001      0 # Data Set 6: Layer Row Column Stage Cond Rbot IFACE
     1   165    32  3.731200000000E+001   1.015000000000E+003   3.631200000000E+001      0 # Data Set 6: Layer Row Column Stage Cond Rbot IFACE
     1   171    32  1.658900000000E+001   1.015000000000E+003   1.558900000000E+001      0 # Data Set 6: Layer Row Column Stage Cond Rbot IFACE
     1   172    32  1.540200000000E+001   1.015000000000E+003   1.440200000000E+001      0 # Data Set 6: Layer Row Column Stage Cond Rbot IFACE
     1   136    33  1.649700000000E+001   2.050000000000E+002   1.549700000000E+001      0 # Data Set 6: Layer Row Column Stage Cond Rbot IFACE
     1   145    33  7.202100000000E+001   2.020000000000E+002   7.102100000000E+001      0 # Data Set 6: Layer Row Column Stage Cond Rbot IFACE
     1   146    33  3.538600000000E+001   2.020000000000E+002   3.438600000000E+001      0 # Data Set 6: Layer Row Column Stage Cond Rbot IFACE
     1   172    33  1.575200000000E+001   1.015000000000E+003   1.475200000000E+001      0 # Data Set 6: Layer Row Column Stage Cond Rbot IFACE
     1   173    33  1.256600000000E+001   1.015000000000E+003   1.156600000000E+001      0 # Data Set 6: Layer Row Column Stage Cond Rbot IFACE
     1   135    34  1.857800000000E+001   2.050000000000E+002   1.757800000000E+001      0 # Data Set 6: Layer Row Column Stage Cond Rbot IFACE
     1   145    34  6.629400000000E+001   2.020000000000E+002   6.529400000000E+001      0 # Data Set 6: Layer Row Column Stage Cond Rbot IFACE
     1   166    34  1.987500000000E+001   1.015000000000E+003   1.887500000000E+001      0 # Data Set 6: Layer Row Column Stage Cond Rbot IFACE
     1   172    34  1.643100000000E+001   1.015000000000E+003   1.543100000000E+001      0 # Data Set 6: Layer Row Column Stage Cond Rbot IFACE
     1   173    34  1.367400000000E+001   1.015000000000E+003   1.267400000000E+001      0 # Data Set 6: Layer Row Column Stage Cond Rbot IFACE
     1   134    35  1.545600000000E+001   2.020000000000E+002   1.445600000000E+001      0 # Data Set 6: Layer Row Column Stage Cond Rbot IFACE
     1   144    35  8.475800000000E+001   2.020000000000E+002   8.375800000000E+001      0 # Data Set 6: Layer Row Column Stage Cond Rbot IFACE
     1   145    35  5.251800000000E+001   2.020000000000E+002   5.151800000000E+001      0 # Data Set 6: Layer Row Column Stage Cond Rbot IFACE
     1   165    35  3.789700000000E+001   1.015000000000E+003   3.689700000000E+001      0 # Data Set 6: Layer Row Column Stage Cond Rbot IFACE
     1   172    35  1.624800000000E+001   1.010000000000E+003   1.524800000000E+001      0 # Data Set 6: Layer Row Column Stage Cond Rbot IFACE
     1   173    35  1.534400000000E+001   1.010000000000E+003   1.434400000000E+001      0 # Data Set 6: Layer Row Column Stage Cond Rbot IFACE
     1   174    35  1.519700000000E+001   1.010000000000E+003   1.419700000000E+001      0 # Data Set 6: Layer Row Column Stage Cond Rbot IFACE
     1   133    36  1.895400000000E+001   2.050000000000E+002   1.795400000000E+001      0 # Data Set 6: Layer Row Column Stage Cond Rbot IFACE
     1   144    36  8.028100000000E+001   2.020000000000E+002   7.928100000000E+001      0 # Data Set 6: Layer Row Column Stage Cond Rbot IFACE
     1   145    36  4.955300000000E+001   2.020000000000E+002   4.855300000000E+001      0 # Data Set 6: Layer Row Column Stage Cond Rbot IFACE
     1   166    36  2.750100000000E+001   1.015000000000E+003   2.650100000000E+001      0 # Data Set 6: Layer Row Column Stage Cond Rbot IFACE
     1   173    36  1.750800000000E+001   1.010000000000E+003   1.650800000000E+001      0 # Data Set 6: Layer Row Column Stage Cond Rbot IFACE
     1   174    36  1.717900000000E+001   1.010000000000E+003   1.617900000000E+001      0 # Data Set 6: Layer Row Column Stage Cond Rbot IFACE
     1   133    37  1.969400000000E+001   2.040000000000E+002   1.869400000000E+001      0 # Data Set 6: Layer Row Column Stage Cond Rbot IFACE
     1   173    37  1.815100000000E+001   1.010000000000E+003   1.715100000000E+001      0 # Data Set 6: Layer Row Column Stage Cond Rbot IFACE
     1   174    37  1.664100000000E+001   1.010000000000E+003   1.564100000000E+001      0 # Data Set 6: Layer Row Column Stage Cond Rbot IFACE
     1   175    37  1.677600000000E+001   1.010000000000E+003   1.577600000000E+001      0 # Data Set 6: Layer Row Column Stage Cond Rbot IFACE
     1   132    38  1.834800000000E+001   2.040000000000E+002   1.734800000000E+001      0 # Data Set 6: Layer Row Column Stage Cond Rbot IFACE
     1   174    38  1.800000000000E+001   1.010000000000E+003   1.700000000000E+001      0 # Data Set 6: Layer Row Column Stage Cond Rbot IFACE
     1   175    38  1.801200000000E+001   1.010000000000E+003   1.701200000000E+001      0 # Data Set 6: Layer Row Column Stage Cond Rbot IFACE
     1   176    38  1.571700000000E+001   1.010000000000E+003   1.471700000000E+001      0 # Data Set 6: Layer Row Column Stage Cond Rbot IFACE
     1   132    39  1.935600000000E+001   2.040000000000E+002   1.835600000000E+001      0 # Data Set 6: Layer Row Column Stage Cond Rbot IFACE
     1   141    39  7.534600000000E+001   2.020000000000E+002   7.434600000000E+001      0 # Data Set 6: Layer Row Column Stage Cond Rbot IFACE
     1   142    39  6.207800000000E+001   2.020000000000E+002   6.107800000000E+001      0 # Data Set 6: Layer Row Column Stage Cond Rbot IFACE
     1   175    39  1.717300000000E+001   1.010000000000E+003   1.617300000000E+001      0 # Data Set 6: Layer Row Column Stage Cond Rbot IFACE
     1   176    39  1.568000000000E+001   1.010000000000E+003   1.468000000000E+001      0 # Data Set 6: Layer Row Column Stage Cond Rbot IFACE
     1   131    40  2.021100000000E+001   2.040000000000E+002   1.921100000000E+001      0 # Data Set 6: Layer Row Column Stage Cond Rbot IFACE
     1   140    40  4.968000000000E+001   2.020000000000E+002   4.868000000000E+001      0 # Data Set 6: Layer Row Column Stage Cond Rbot IFACE
     1   141    40  4.582200000000E+001   2.020000000000E+002   4.482200000000E+001      0 # Data Set 6: Layer Row Column Stage Cond Rbot IFACE
     1   142    40  3.690000000000E+001   2.020000000000E+002   3.590000000000E+001      0 # Data Set 6: Layer Row Column Stage Cond Rbot IFACE
     1   168    40  1.907200000000E+001   1.015000000000E+003   1.807200000000E+001      0 # Data Set 6: Layer Row Column Stage Cond Rbot IFACE
     1   175    40  1.719300000000E+001   1.010000000000E+003   1.619300000000E+001      0 # Data Set 6: Layer Row Column Stage Cond Rbot IFACE
     1   176    40  1.727400000000E+001   1.010000000000E+003   1.627400000000E+001      0 # Data Set 6: Layer Row Column Stage Cond Rbot IFACE
     1   130    41  2.032900000000E+001   2.040000000000E+002   1.932900000000E+001      0 # Data Set 6: Layer Row Column Stage Cond Rbot IFACE
     1   141    41  3.845300000000E+001   2.020000000000E+002   3.745300000000E+001      0 # Data Set 6: Layer Row Column Stage Cond Rbot IFACE
     1   163    41  3.223100000000E+001   1.015000000000E+003   3.123100000000E+001      0 # Data Set 6: Layer Row Column Stage Cond Rbot IFACE
     1   165    41  4.807700000000E+001   1.015000000000E+003   4.707700000000E+001      0 # Data Set 6: Layer Row Column Stage Cond Rbot IFACE
     1   174    41  2.056900000000E+001   1.010000000000E+003   1.956900000000E+001      0 # Data Set 6: Layer Row Column Stage Cond Rbot IFACE
     1   175    41  1.721700000000E+001   1.010000000000E+003   1.621700000000E+001      0 # Data Set 6: Layer Row Column Stage Cond Rbot IFACE
     1   128    42  2.219900000000E+001   2.030000000000E+002   2.119900000000E+001      0 # Data Set 6: Layer Row Column Stage Cond Rbot IFACE
     1   129    42  2.118900000000E+001   2.030000000000E+002   2.018900000000E+001      0 # Data Set 6: Layer Row Column Stage Cond Rbot IFACE
     1   140    42  4.469400000000E+001   2.020000000000E+002   4.369400000000E+001      0 # Data Set 6: Layer Row Column Stage Cond Rbot IFACE
     1   161    42  6.390800000000E+001   1.015000000000E+003   6.290800000000E+001      0 # Data Set 6: Layer Row Column Stage Cond Rbot IFACE
     1   162    42  3.641000000000E+001   1.015000000000E+003   3.541000000000E+001      0 # Data Set 6: Layer Row Column Stage Cond Rbot IFACE
     1   164    42  6.880900000000E+001   1.015000000000E+003   6.780900000000E+001      0 # Data Set 6: Layer Row Column Stage Cond Rbot IFACE
     1   166    42  5.088100000000E+001   1.015000000000E+003   4.988100000000E+001      0 # Data Set 6: Layer Row Column Stage Cond Rbot IFACE
     1   174    42  1.776000000000E+001   9.200000000000E+002   1.676000000000E+001      0 # Data Set 6: Layer Row Column Stage Cond Rbot IFACE
     1   175    42  1.700000000000E+001   9.200000000000E+002   1.600000000000E+001      0 # Data Set 6: Layer Row Column Stage Cond Rbot IFACE
     1   127    43  2.135600000000E+001   2.030000000000E+002   2.035600000000E+001      0 # Data Set 6: Layer Row Column Stage Cond Rbot IFACE
     1   140    43  6.240700000000E+001   2.020000000000E+002   6.140700000000E+001      0 # Data Set 6: Layer Row Column Stage Cond Rbot IFACE
     1   162    43  4.933100000000E+001   1.015000000000E+003   4.833100000000E+001      0 # Data Set 6: Layer Row Column Stage Cond Rbot IFACE
     1   175    43  1.899000000000E+001   9.200000000000E+002   1.799000000000E+001      0 # Data Set 6: Layer Row Column Stage Cond Rbot IFACE
     1   125    44  2.646600000000E+001   2.030000000000E+002   2.546600000000E+001      0 # Data Set 6: Layer Row Column Stage Cond Rbot IFACE
     1   126    44  2.533200000000E+001   2.030000000000E+002   2.433200000000E+001      0 # Data Set 6: Layer Row Column Stage Cond Rbot IFACE
     1   174    44  2.077400000000E+001   1.005000000000E+003   1.977400000000E+001      0 # Data Set 6: Layer Row Column Stage Cond Rbot IFACE
     1   175    44  1.804600000000E+001   1.005000000000E+003   1.704600000000E+001      0 # Data Set 6: Layer Row Column Stage Cond Rbot IFACE
     1   124    45  3.049200000000E+001   2.030000000000E+002   2.949200000000E+001      0 # Data Set 6: Layer Row Column Stage Cond Rbot IFACE
     1   174    45  2.079800000000E+001   1.005000000000E+003   1.979800000000E+001      0 # Data Set 6: Layer Row Column Stage Cond Rbot IFACE
     1   175    45  1.663400000000E+001   1.005000000000E+003   1.563400000000E+001      0 # Data Set 6: Layer Row Column Stage Cond Rbot IFACE
     1   123    46  2.395900000000E+001   2.020000000000E+002   2.295900000000E+001      0 # Data Set 6: Layer Row Column Stage Cond Rbot IFACE
     1   174    46  2.157700000000E+001   1.005000000000E+003   2.057700000000E+001      0 # Data Set 6: Layer Row Column Stage Cond Rbot IFACE
     1   175    46  1.708900000000E+001   1.005000000000E+003   1.608900000000E+001      0 # Data Set 6: Layer Row Column Stage Cond Rbot IFACE
     1   176    46  1.739300000000E+001   1.005000000000E+003   1.639300000000E+001      0 # Data Set 6: Layer Row Column Stage Cond Rbot IFACE
     1   123    47  2.688200000000E+001   2.020000000000E+002   2.588200000000E+001      0 # Data Set 6: Layer Row Column Stage Cond Rbot IFACE
     1   175    47  1.813500000000E+001   1.005000000000E+003   1.713500000000E+001      0 # Data Set 6: Layer Row Column Stage Cond Rbot IFACE
     1   176    47  1.846800000000E+001   1.005000000000E+003   1.746800000000E+001      0 # Data Set 6: Layer Row Column Stage Cond Rbot IFACE
     1   123    48  2.899500000000E+001   2.020000000000E+002   2.799500000000E+001      0 # Data Set 6: Layer Row Column Stage Cond Rbot IFACE
     1   177    48  1.998500000000E+001   1.300000000000E+002   1.898500000000E+001      0 # Data Set 6: Layer Row Column Stage Cond Rbot IFACE
     1   178    48  2.226600000000E+001   1.300000000000E+002   2.126600000000E+001      0 # Data Set 6: Layer Row Column Stage Cond Rbot IFACE
     1   179    48  2.001000000000E+001   2.600000000000E+001   1.901000000000E+001      0 # Data Set 6: Layer Row Column Stage Cond Rbot IFACE
     1   123    49  3.000000000000E+001   2.020000000000E+002   2.900000000000E+001      0 # Data Set 6: Layer Row Column Stage Cond Rbot IFACE
     1   177    49  1.648500000000E+001   9.200000000000E+002   1.548500000000E+001      0 # Data Set 6: Layer Row Column Stage Cond Rbot IFACE
     1   180    49  2.207200000000E+001   1.830000000000E+002   2.107200000000E+001      0 # Data Set 6: Layer Row Column Stage Cond Rbot IFACE
     1   122    50  3.027100000000E+001   2.020000000000E+002   2.927100000000E+001      0 # Data Set 6: Layer Row Column Stage Cond Rbot IFACE
     1   178    50  2.123500000000E+001   9.200000000000E+002   2.023500000000E+001      0 # Data Set 6: Layer Row Column Stage Cond Rbot IFACE
     1   180    50  2.382000000000E+001   2.500000000000E+002   2.282000000000E+001      0 # Data Set 6: Layer Row Column Stage Cond Rbot IFACE
     1   121    51  3.202600000000E+001   2.010000000000E+002   3.102600000000E+001      0 # Data Set 6: Layer Row Column Stage Cond Rbot IFACE
     1   177    51  2.386500000000E+001   9.200000000000E+002   2.286500000000E+001      0 # Data Set 6: Layer Row Column Stage Cond Rbot IFACE
     1   178    51  2.311200000000E+001   1.840000000000E+002   2.211200000000E+001      0 # Data Set 6: Layer Row Column Stage Cond Rbot IFACE
     1   181    51  2.335200000000E+001   2.440000000000E+002   2.235200000000E+001      0 # Data Set 6: Layer Row Column Stage Cond Rbot IFACE
     1   120    52  3.422300000000E+001   1.852000000000E+001   3.322300000000E+001      0 # Data Set 6: Layer Row Column Stage Cond Rbot IFACE
     1   177    52  2.392400000000E+001   1.840000000000E+002   2.292400000000E+001      0 # Data Set 6: Layer Row Column Stage Cond Rbot IFACE
     1   178    52  2.238200000000E+001   1.840000000000E+002   2.138200000000E+001      0 # Data Set 6: Layer Row Column Stage Cond Rbot IFACE
     1   182    52  2.486400000000E+001   1.820000000000E+002   2.386400000000E+001      0 # Data Set 6: Layer Row Column Stage Cond Rbot IFACE
     1   119    53  3.408000000000E+001   2.010000000000E+002   3.308000000000E+001      0 # Data Set 6: Layer Row Column Stage Cond Rbot IFACE
     1   178    53  1.900100000000E+001   1.840000000000E+002   1.800100000000E+001      0 # Data Set 6: Layer Row Column Stage Cond Rbot IFACE
     1   182    53  2.461300000000E+001   1.820000000000E+002   2.361300000000E+001      0 # Data Set 6: Layer Row Column Stage Cond Rbot IFACE
     1   118    54  3.669800000000E+001   2.010000000000E+002   3.569800000000E+001      0 # Data Set 6: Layer Row Column Stage Cond Rbot IFACE
     1   176    54  2.358000000000E+001   1.840000000000E+002   2.258000000000E+001      0 # Data Set 6: Layer Row Column Stage Cond Rbot IFACE
     1   177    54  1.977200000000E+001   1.840000000000E+002   1.877200000000E+001      0 # Data Set 6: Layer Row Column Stage Cond Rbot IFACE
     1   181    54  2.583200000000E+001   2.292000000000E+002   2.483200000000E+001      0 # Data Set 6: Layer Row Column Stage Cond Rbot IFACE
     1   116    55  3.843000000000E+001   1.790000000000E+002   3.743000000000E+001      0 # Data Set 6: Layer Row Column Stage Cond Rbot IFACE
     1   117    55  3.685500000000E+001   2.010000000000E+002   3.585500000000E+001      0 # Data Set 6: Layer Row Column Stage Cond Rbot IFACE
     1   170    55  4.517800000000E+001   1.840000000000E+002   4.417800000000E+001      0 # Data Set 6: Layer Row Column Stage Cond Rbot IFACE
     1   171    55  3.727800000000E+001   1.840000000000E+002   3.627800000000E+001      0 # Data Set 6: Layer Row Column Stage Cond Rbot IFACE
     1   177    55  2.081100000000E+001   1.830000000000E+002   1.981100000000E+001      0 # Data Set 6: Layer Row Column Stage Cond Rbot IFACE
     1   181    55  2.674900000000E+001   2.240000000000E+002   2.574900000000E+001      0 # Data Set 6: Layer Row Column Stage Cond Rbot IFACE
     1   114    56  3.916000000000E+001   2.000000000000E+002   3.816000000000E+001      0 # Data Set 6: Layer Row Column Stage Cond Rbot IFACE
     1   115    56  4.096300000000E+001   2.000000000000E+002   3.996300000000E+001      0 # Data Set 6: Layer Row Column Stage Cond Rbot IFACE
     1   171    56  4.716400000000E+001   1.840000000000E+002   4.616400000000E+001      0 # Data Set 6: Layer Row Column Stage Cond Rbot IFACE
     1   172    56  4.234600000000E+001   1.840000000000E+002   4.134600000000E+001      0 # Data Set 6: Layer Row Column Stage Cond Rbot IFACE
     1   177    56  2.220400000000E+001   1.980000000000E+003   2.120400000000E+001      0 # Data Set 6: Layer Row Column Stage Cond Rbot IFACE
     1   181    56  2.776800000000E+001   2.140000000000E+002   2.676800000000E+001      0 # Data Set 6: Layer Row Column Stage Cond Rbot IFACE
     1   113    57  4.038500000000E+001   2.000000000000E+002   3.938500000000E+001      0 # Data Set 6: Layer Row Column Stage Cond Rbot IFACE
     1   173    57  3.761300000000E+001   1.840000000000E+002   3.661300000000E+001      0 # Data Set 6: Layer Row Column Stage Cond Rbot IFACE