# CHD: Time-Variant Specified-Head package file created on 2/13/2024 by ModelMuse version 5.1.1.0.
# CHD: Time-Variant Specified-Head package file created on 10/4/2023 by ModelMuse version 4.3.0.0.
# CHD: Time-Variant Specified-Head package file created on 3/14/2023 by ModelMuse version 5.0.0.0.
# CHD: Time-Variant Specified-Head package file created on 10/13/2022 by ModelMuse version 4.3.0.0.
# CHD: Time-Variant Specified-Head package file created on 10/12/2022 by ModelMuse version 4.3.0.0.
# CHD: Time-Variant Specified-Head package file created on 10/4/2022 by ModelMuse version 4.3.0.0.
# CHD: Time-Variant Specified-Head package file created on 10/1/2022 by ModelMuse version 4.3.0.0.
# CHD: Time-Variant Specified-Head package file created on 9/22/2022 by ModelMuse version 5.0.0.0.
# CHD: Time-Variant Specified-Head package file created on 9/19/2022 by ModelMuse version 4.3.0.0.
# CHD: Time-Variant Specified-Head package file created on 9/1/2022 by ModelMuse version 4.3.0.0.
# CHD: Time-Variant Specified-Head package file created on 8/22/2022 by ModelMuse version 4.3.0.0.
# CHD: Time-Variant Specified-Head package file created on 8/19/2022 by ModelMuse version 4.3.0.0.
# CHD: Time-Variant Specified-Head package file created on 7/22/2022 by ModelMuse version 4.3.0.0.
# CHD: Time-Variant Specified-Head package file created on 7/14/2022 by ModelMuse version 5.0.0.0.
# CHD: Time-Variant Specified-Head package file created on 7/12/2022 by ModelMuse version 5.0.0.0.
# CHD: Time-Variant Specified-Head package file created on 15/06/2020 by ModelMuse version 4.2.0.0.
# CHD: Time-Variant Specified-Head package file created on 25-Mar-20 by ModelMuse version 4.1.0.0.
# CHD: Time-Variant Specified-Head package file created on 12/13/2019 by ModelMuse version 4.1.0.0.
# MODFLOW2000 Constant-Head Boundary Package (CHD)
    19 AUXILIARY IFACE # MXACTC Option
    19     0 # Data Set 5: ITMP NP Stress period 1
     1    70     4  0.000000000000E+000   0.000000000000E+000      0 # Data Set 6: Layer Row Column Shead Ehead IFACE
     1    71     4  0.000000000000E+000   0.000000000000E+000      0 # Data Set 6: Layer Row Column Shead Ehead IFACE
     1    72     4  0.000000000000E+000   0.000000000000E+000      0 # Data Set 6: Layer Row Column Shead Ehead IFACE
     1    73     4  0.000000000000E+000   0.000000000000E+000      0 # Data Set 6: Layer Row Column Shead Ehead IFACE
     1    68     5  0.000000000000E+000   0.000000000000E+000      0 # Data Set 6: Layer Row Column Shead Ehead IFACE
     1    69     5  0.000000000000E+000   0.000000000000E+000      0 # Data Set 6: Layer Row Column Shead Ehead IFACE
     1    70     5  0.000000000000E+000   0.000000000000E+000      0 # Data Set 6: Layer Row Column Shead Ehead IFACE
     1    71     5  0.000000000000E+000   0.000000000000E+000      0 # Data Set 6: Layer Row Column Shead Ehead IFACE
     1    72     5  0.000000000000E+000   0.000000000000E+000      0 # Data Set 6: Layer Row Column Shead Ehead IFACE
     1    73     5  0.000000000000E+000   0.000000000000E+000      0 # Data Set 6: Layer Row Column Shead Ehead IFACE
     1    68     6  0.000000000000E+000   0.000000000000E+000      0 # Data Set 6: Layer Row Column Shead Ehead IFACE
     1    69     6  0.000000000000E+000   0.000000000000E+000      0 # Data Set 6: Layer Row Column Shead Ehead IFACE
     1    70     6  0.000000000000E+000   0.000000000000E+000      0 # Data Set 6: Layer Row Column Shead Ehead IFACE
     1    71     6  0.000000000000E+000   0.000000000000E+000      0 # Data Set 6: Layer Row Column Shead Ehead IFACE
     1    68     7  0.000000000000E+000   0.000000000000E+000      0 # Data Set 6: Layer Row Column Shead Ehead IFACE
     1    69     7  0.000000000000E+000   0.000000000000E+000      0 # Data Set 6: Layer Row Column Shead Ehead IFACE
     1    70     7  0.000000000000E+000   0.000000000000E+000      0 # Data Set 6: Layer Row Column Shead Ehead IFACE
     1    68     8  0.000000000000E+000   0.000000000000E+000      0 # Data Set 6: Layer Row Column Shead Ehead IFACE
     1    69     8  0.000000000000E+000   0.000000000000E+000      0 # Data Set 6: Layer Row Column Shead Ehead IFACE
    -1     0 # Data Set 5: ITMP NP Stress period 2
