# RCH: Recharge package file created on 2/13/2024 by ModelMuse version 5.1.1.0.
# RCH: Recharge package file created on 10/4/2023 by ModelMuse version 4.3.0.0.
# RCH: Recharge package file created on 3/14/2023 by ModelMuse version 5.0.0.0.
# RCH: Recharge package file created on 10/13/2022 by ModelMuse version 4.3.0.0.
# RCH: Recharge package file created on 10/12/2022 by ModelMuse version 4.3.0.0.
# RCH: Recharge package file created on 10/4/2022 by ModelMuse version 4.3.0.0.
# RCH: Recharge package file created on 10/1/2022 by ModelMuse version 4.3.0.0.
# RCH: Recharge package file created on 9/22/2022 by ModelMuse version 5.0.0.0.
# RCH: Recharge package file created on 9/19/2022 by ModelMuse version 4.3.0.0.
# RCH: Recharge package file created on 9/1/2022 by ModelMuse version 4.3.0.0.
# RCH: Recharge package file created on 8/22/2022 by ModelMuse version 4.3.0.0.
# RCH: Recharge package file created on 8/19/2022 by ModelMuse version 4.3.0.0.
# RCH: Recharge package file created on 7/22/2022 by ModelMuse version 4.3.0.0.
# RCH: Recharge package file created on 7/14/2022 by ModelMuse version 5.0.0.0.
# RCH: Recharge package file created on 7/12/2022 by ModelMuse version 5.0.0.0.
# RCH: Recharge package file created on 15/06/2020 by ModelMuse version 4.2.0.0.
# RCH: Recharge package file created on 25-Mar-20 by ModelMuse version 4.1.0.0.
# RCH: Recharge package file created on 12/13/2019 by ModelMuse version 4.1.0.0.
# MODFLOW2000 Recharge Package
     3     9 # DataSet 2: NRCHOP IRCHCB
     1     1 # Data Set 5: INRECH INIRCH Stress period 1
CONSTANT     2.560000000000E-005  # Data Set 6: RECH
    -1     1 # Data Set 5: INRECH INIRCH Stress period 2
