# Discretization File created on 2/2/2024 by ModelMuse version 5.1.1.0.
# MODFLOW2005 Basic Package
# MODFLOW2000 Dataset Imported into Groundwater Vistas
# Upper left corner: (272200, 6425600)
# Lower left corner: (272200, 6390800)
# Upper right corner: (346400, 6425600)
# Lower right corner: (346400, 6390800)
# Grid angle (in degrees counterclockwise): 0
     1   174   371     2     4     2 # NLAY, NROW, NCOL, NPER, ITMUNI, LENUNI
     0 # LAYCB
CONSTANT     2.000000000000E+002  # DELR
CONSTANT     2.000000000000E+002  # DELC
INTERNAL 1.0 (FREE)       12 # TOP
  1.000000000000E+030   1.000000000000E+030   1.000000000000E+030   1.000000000000E+030   1.000000000000E+030   1.000000000000E+030   1.000000000000E+030   1.000000000000E+030   1.000000000000E+030   1.000000000000E+030 
  1.000000000000E+030   1.000000000000E+030   1.000000000000E+030   1.000000000000E+030   1.000000000000E+030   1.000000000000E+030   1.000000000000E+030   1.000000000000E+030   1.000000000000E+030   1.000000000000E+030 
  1.000000000000E+030   1.000000000000E+030   1.000000000000E+030   1.000000000000E+030   1.000000000000E+030   1.000000000000E+030   1.000000000000E+030   1.000000000000E+030   1.000000000000E+030   1.000000000000E+030 
  1.000000000000E+030   1.000000000000E+030   1.000000000000E+030   1.000000000000E+030   1.000000000000E+030   1.000000000000E+030   1.000000000000E+030   1.000000000000E+030   1.000000000000E+030   1.000000000000E+030 
  1.000000000000E+030   1.000000000000E+030   1.000000000000E+030   1.000000000000E+030   1.000000000000E+030   1.000000000000E+030   1.000000000000E+030   1.000000000000E+030   1.000000000000E+030   1.000000000000E+030 
  1.000000000000E+030   1.000000000000E+030   1.000000000000E+030   1.000000000000E+030   1.015300000000E+003   9.420400000000E+002   9.292800000000E+002   8.913000000000E+002   8.104200000000E+002   7.224400000000E+002 
  7.338700000000E+002   7.542500000000E+002   7.034200000000E+002   6.131700000000E+002   5.520300000000E+002   5.056900000000E+002   4.952300000000E+002   4.658600000000E+002   4.684400000000E+002   3.957000000000E+002 
  3.500900000000E+002   3.462700000000E+002   3.528100000000E+002   3.542100000000E+002   3.595200000000E+002   3.753800000000E+002   3.492600000000E+002   3.132400000000E+002   2.992600000000E+002   2.606000000000E+002 
  2.503700000000E+002   2.299100000000E+002   1.769100000000E+002   1.249100000000E+002   1.252700000000E+002   1.371000000000E+002   1.433800000000E+002   1.529600000000E+002   1.680300000000E+002   1.834300000000E+002 
  2.025800000000E+002   2.484600000000E+002   2.686800000000E+002   3.058600000000E+002   3.914800000000E+002   4.450400000000E+002   5.494800000000E+002   6.263100000000E+002   6.976100000000E+002   7.524100000000E+002 
  7.810200000000E+002   8.036000000000E+002   7.585900000000E+002   7.295500000000E+002   7.010900000000E+002   6.629100000000E+002   6.851100000000E+002   6.309300000000E+002   7.402100000000E+002   8.310100000000E+002 
  7.807700000000E+002   6.741300000000E+002   6.144900000000E+002   6.442100000000E+002   7.454300000000E+002   7.113600000000E+002   7.073200000000E+002   6.662400000000E+002   6.689700000000E+002   7.652000000000E+002 
  8.417500000000E+002   8.915400000000E+002   9.837900000000E+002   1.023600000000E+003   9.523300000000E+002   8.159300000000E+002   7.941500000000E+002   7.675400000000E+002   7.213000000000E+002   7.147800000000E+002 
  6.665000000000E+002   5.678200000000E+002   5.518900000000E+002   5.397000000000E+002   5.319600000000E+002   4.970600000000E+002   4.745900000000E+002   4.646900000000E+002   4.436800000000E+002   4.320600000000E+002 
  4.190500000000E+002   4.053500000000E+002   3.960000000000E+002   3.790200000000E+002   3.694200000000E+002   3.700300000000E+002   3.686000000000E+002   3.661000000000E+002   3.658600000000E+002   3.758400000000E+002 
  3.872800000000E+002   4.036300000000E+002   4.066500000000E+002   4.066600000000E+002   4.231000000000E+002   4.198500000000E+002   4.283000000000E+002   4.654800000000E+002   4.897600000000E+002   5.173500000000E+002 
  5.380500000000E+002   5.325900000000E+002   5.180800000000E+002   5.206200000000E+002   5.360500000000E+002   5.552200000000E+002   5.771100000000E+002   6.119700000000E+002   6.908500000000E+002   6.977000000000E+002 
  7.533200000000E+002   7.277000000000E+002   6.528800000000E+002   5.774300000000E+002   5.329400000000E+002   5.691900000000E+002   6.099700000000E+002   5.228800000000E+002   4.619700000000E+002   4.205700000000E+002 
  3.660700000000E+002   3.638100000000E+002   3.661500000000E+002   3.670600000000E+002   3.723900000000E+002   4.050100000000E+002   4.873800000000E+002   5.703900000000E+002   6.432900000000E+002   6.039000000000E+002 
  5.765400000000E+002   5.845400000000E+002   6.521300000000E+002   7.123100000000E+002   8.167200000000E+002   9.120800000000E+002   9.772300000000E+002   1.028800000000E+003   9.886600000000E+002   9.152100000000E+002 
  8.436600000000E+002   7.847100000000E+002   7.293600000000E+002   6.132900000000E+002   5.825600000000E+002   6.265500000000E+002   7.202900000000E+002   7.460300000000E+002   6.279900000000E+002   6.494400000000E+002 
  7.105600000000E+002   7.448600000000E+002   6.484800000000E+002   6.141100000000E+002   5.781200000000E+002   5.644600000000E+002   5.675700000000E+002   5.699400000000E+002   6.118700000000E+002   6.488500000000E+002 
  6.922000000000E+002   7.346500000000E+002   7.851500000000E+002   8.664300000000E+002   9.223900000000E+002   9.631200000000E+002   9.981200000000E+002   1.038500000000E+003   1.113000000000E+003   1.199500000000E+003 
  1.236700000000E+003   1.247300000000E+003   1.317200000000E+003   1.364200000000E+003   1.447400000000E+003   1.495100000000E+003   1.497200000000E+003   1.432600000000E+003   1.386800000000E+003   1.359500000000E+003 
  1.322800000000E+003   1.289900000000E+003   1.331200000000E+003   1.437200000000E+003   1.501100000000E+003   1.549100000000E+003   1.569300000000E+003   1.506900000000E+003   1.440200000000E+003   1.326100000000E+003 
  1.269800000000E+003   1.218600000000E+003   1.130700000000E+003   1.092900000000E+003   1.021000000000E+003   9.849300000000E+002   9.764100000000E+002   9.840000000000E+002   1.039100000000E+003   1.080300000000E+003 
  1.134900000000E+003   1.199000000000E+003   1.248100000000E+003   1.179000000000E+003   1.174400000000E+003   1.190500000000E+003   1.248900000000E+003   1.286400000000E+003   1.308900000000E+003   1.358300000000E+003 
  1.442800000000E+003   1.543400000000E+003   1.589100000000E+003   1.538400000000E+003   1.420400000000E+003   1.333200000000E+003   1.268500000000E+003   1.200500000000E+003   1.149500000000E+003   1.099300000000E+003 
  1.046000000000E+003   1.014000000000E+003   9.675500000000E+002   9.130600000000E+002   8.861400000000E+002   8.545200000000E+002   8.344800000000E+002   8.529100000000E+002   9.014800000000E+002   9.489500000000E+002 
  9.219800000000E+002   9.414300000000E+002   9.722300000000E+002   1.007400000000E+003   1.069100000000E+003   1.167800000000E+003   1.251600000000E+003   1.294300000000E+003   1.246400000000E+003   1.309200000000E+003 
  1.397700000000E+003   1.375100000000E+003   1.456600000000E+003   1.538000000000E+003   1.593000000000E+003   1.654300000000E+003   1.788100000000E+003   1.892700000000E+003   2.027700000000E+003   2.203800000000E+003 
  2.300200000000E+003   2.368100000000E+003   2.428100000000E+003   2.399900000000E+003   2.338200000000E+003   2.224300000000E+003   2.142900000000E+003   2.039500000000E+003   1.918100000000E+003   1.800100000000E+003 
  1.682300000000E+003   1.668100000000E+003   1.686800000000E+003   1.659600000000E+003   1.656000000000E+003   1.698100000000E+003   1.781400000000E+003   1.865500000000E+003   1.849700000000E+003   1.758100000000E+003 
  1.729000000000E+003   1.728200000000E+003   1.848400000000E+003   1.860100000000E+003   1.792400000000E+003   1.636800000000E+003   1.564500000000E+003   1.556700000000E+003   1.556100000000E+003   1.477900000000E+003 
  1.400200000000E+003   1.406400000000E+003   1.420800000000E+003   1.369800000000E+003   1.372400000000E+003   1.385300000000E+003   1.397000000000E+003   1.394300000000E+003   1.424000000000E+003   1.535000000000E+003 
  1.621600000000E+003   1.727300000000E+003   1.788200000000E+003   1.708300000000E+003   1.600600000000E+003   1.520100000000E+003   1.466100000000E+003   1.395500000000E+003   1.398100000000E+003   1.401300000000E+003 
  1.388100000000E+003   1.397700000000E+003   1.452000000000E+003   1.390100000000E+003   1.400000000000E+003   1.403800000000E+003   1.397200000000E+003   1.405000000000E+003   1.411500000000E+003   1.392400000000E+003 
  1.383500000000E+003 
  1.000000000000E+030   1.000000000000E+030   1.000000000000E+030   1.000000000000E+030   1.000000000000E+030   1.000000000000E+030   1.000000000000E+030   1.000000000000E+030   1.000000000000E+030   1.000000000000E+030 
  1.000000000000E+030   1.000000000000E+030   1.000000000000E+030   1.000000000000E+030   1.000000000000E+030   1.000000000000E+030   1.000000000000E+030   1.000000000000E+030   1.000000000000E+030   1.000000000000E+030 
  1.000000000000E+030   1.000000000000E+030   1.000000000000E+030   1.000000000000E+030   1.000000000000E+030   1.000000000000E+030   1.000000000000E+030   1.000000000000E+030   1.000000000000E+030   1.000000000000E+030 
  1.000000000000E+030   1.000000000000E+030   1.000000000000E+030   1.000000000000E+030   1.000000000000E+030   1.000000000000E+030   1.000000000000E+030   1.000000000000E+030   1.000000000000E+030   1.000000000000E+030 
  1.000000000000E+030   1.000000000000E+030   1.000000000000E+030   1.000000000000E+030   1.000000000000E+030   1.000000000000E+030   1.000000000000E+030   1.000000000000E+030   1.000000000000E+030   1.000000000000E+030 
  1.000000000000E+030   1.000000000000E+030   9.785600000000E+002   9.809300000000E+002   9.307100000000E+002   8.781100000000E+002   8.298500000000E+002   8.784200000000E+002   8.343900000000E+002   7.449200000000E+002 
  6.867000000000E+002   6.603200000000E+002   6.709900000000E+002   6.606700000000E+002   5.887000000000E+002   4.907300000000E+002   4.597200000000E+002   4.403400000000E+002   3.937300000000E+002   3.793200000000E+002 
  4.106100000000E+002   4.609600000000E+002   4.542100000000E+002   4.027400000000E+002   4.135700000000E+002   4.262100000000E+002   4.294200000000E+002   4.105400000000E+002   3.679000000000E+002   3.074500000000E+002 
  2.956000000000E+002   2.755200000000E+002   2.038900000000E+002   1.366500000000E+002   1.203100000000E+002   1.324200000000E+002   1.417000000000E+002   1.503600000000E+002   1.650700000000E+002   1.861600000000E+002 
  2.187700000000E+002   2.955200000000E+002   3.438100000000E+002   3.464600000000E+002   3.813000000000E+002   4.372500000000E+002   5.112500000000E+002   6.213600000000E+002   6.718600000000E+002   7.318000000000E+002 
  8.046100000000E+002   7.666500000000E+002   6.909400000000E+002   6.321600000000E+002   6.529700000000E+002   5.912200000000E+002   5.835400000000E+002   5.763000000000E+002   7.171400000000E+002   7.662100000000E+002 
  7.209700000000E+002   6.261000000000E+002   5.656700000000E+002   5.931600000000E+002   6.134900000000E+002   5.992700000000E+002   6.089300000000E+002   6.283700000000E+002   7.137400000000E+002   8.212400000000E+002 
  9.256300000000E+002   9.444700000000E+002   1.019000000000E+003   1.042800000000E+003   9.866300000000E+002   9.105400000000E+002   8.731800000000E+002   8.160400000000E+002   7.236900000000E+002   6.692700000000E+002 
  6.242900000000E+002   6.145100000000E+002   5.836100000000E+002   5.606300000000E+002   5.181000000000E+002   5.046400000000E+002   4.965500000000E+002   4.763200000000E+002   4.583900000000E+002   4.467500000000E+002 
  4.313100000000E+002   4.190000000000E+002   4.128200000000E+002   3.896100000000E+002   3.767500000000E+002   3.672500000000E+002   3.670100000000E+002   3.641300000000E+002   3.617900000000E+002   3.630000000000E+002 
  3.822000000000E+002   3.932200000000E+002   3.988000000000E+002   3.969400000000E+002   4.045600000000E+002   4.041300000000E+002   4.271300000000E+002   4.599500000000E+002   4.802600000000E+002   4.940700000000E+002 
  4.930900000000E+002   4.696400000000E+002   4.772500000000E+002   4.958600000000E+002   5.099600000000E+002   5.239300000000E+002   5.594700000000E+002   6.180900000000E+002   6.277400000000E+002   5.904100000000E+002 
  6.272200000000E+002   6.463900000000E+002   5.988900000000E+002   5.481300000000E+002   4.880300000000E+002   4.848400000000E+002   5.222000000000E+002   5.061600000000E+002   4.150900000000E+002   3.768200000000E+002 
  3.632700000000E+002   3.633200000000E+002   3.635100000000E+002   3.699400000000E+002   4.036200000000E+002   4.457100000000E+002   5.348500000000E+002   5.983600000000E+002   6.661700000000E+002   7.048100000000E+002 
  6.719100000000E+002   6.506200000000E+002   6.532000000000E+002   6.860400000000E+002   7.834000000000E+002   8.970700000000E+002   9.903300000000E+002   1.086900000000E+003   1.039200000000E+003   9.458500000000E+002 
  8.635700000000E+002   7.901900000000E+002   7.396800000000E+002   6.485000000000E+002   6.029900000000E+002   6.610000000000E+002   7.612900000000E+002   8.018400000000E+002   7.177100000000E+002   7.586500000000E+002 
  7.758500000000E+002   7.696900000000E+002   6.751100000000E+002   6.702100000000E+002   6.373300000000E+002   6.002700000000E+002   5.914400000000E+002   5.870400000000E+002   5.891300000000E+002   6.179100000000E+002 
  6.762100000000E+002   7.445800000000E+002   8.277400000000E+002   9.259800000000E+002   9.606800000000E+002   9.989400000000E+002   1.051900000000E+003   1.094000000000E+003   1.147500000000E+003   1.222400000000E+003 
  1.251300000000E+003   1.293800000000E+003   1.321600000000E+003   1.371200000000E+003   1.442300000000E+003   1.504200000000E+003   1.521300000000E+003   1.468300000000E+003   1.441200000000E+003   1.421500000000E+003 
  1.371300000000E+003   1.347100000000E+003   1.349800000000E+003   1.463500000000E+003   1.541100000000E+003   1.591200000000E+003   1.561300000000E+003   1.477000000000E+003   1.389300000000E+003   1.280400000000E+003 
  1.246400000000E+003   1.219300000000E+003   1.152700000000E+003   1.112900000000E+003   1.046900000000E+003   1.017300000000E+003   1.022300000000E+003   1.044800000000E+003   1.036500000000E+003   1.096900000000E+003 
  1.157300000000E+003   1.198200000000E+003   1.268700000000E+003   1.249100000000E+003   1.242800000000E+003   1.260700000000E+003   1.298100000000E+003   1.299700000000E+003   1.324500000000E+003   1.409900000000E+003 
  1.487800000000E+003   1.554600000000E+003   1.531300000000E+003   1.508100000000E+003   1.440900000000E+003   1.357200000000E+003   1.318600000000E+003   1.263500000000E+003   1.210100000000E+003   1.187200000000E+003 
  1.123400000000E+003   1.061700000000E+003   9.926700000000E+002   9.036400000000E+002   8.568900000000E+002   8.318200000000E+002   8.206800000000E+002   8.358200000000E+002   8.672000000000E+002   9.068500000000E+002 
  9.011500000000E+002   9.366500000000E+002   9.670500000000E+002   1.029900000000E+003   1.058300000000E+003   1.123800000000E+003   1.196800000000E+003   1.187700000000E+003   1.245100000000E+003   1.299100000000E+003 
  1.293700000000E+003   1.337300000000E+003   1.398200000000E+003   1.511500000000E+003   1.588600000000E+003   1.662300000000E+003   1.799200000000E+003   1.917300000000E+003   2.045500000000E+003   2.176600000000E+003 
  2.243100000000E+003   2.320400000000E+003   2.302000000000E+003   2.273900000000E+003   2.260300000000E+003   2.255500000000E+003   2.180500000000E+003   2.048600000000E+003   1.935600000000E+003   1.852800000000E+003 
  1.724200000000E+003   1.604600000000E+003   1.597700000000E+003   1.588200000000E+003   1.578000000000E+003   1.609400000000E+003   1.742200000000E+003   1.828100000000E+003   1.799000000000E+003   1.667700000000E+003 
  1.615200000000E+003   1.628500000000E+003   1.699000000000E+003   1.753300000000E+003   1.829600000000E+003   1.720400000000E+003   1.609700000000E+003   1.495000000000E+003   1.476000000000E+003   1.459900000000E+003 
  1.382100000000E+003   1.358000000000E+003   1.356400000000E+003   1.332000000000E+003   1.345700000000E+003   1.355900000000E+003   1.363200000000E+003   1.371000000000E+003   1.426600000000E+003   1.556200000000E+003 
  1.630600000000E+003   1.696600000000E+003   1.793800000000E+003   1.739400000000E+003   1.667600000000E+003   1.529600000000E+003   1.436100000000E+003   1.390900000000E+003   1.356100000000E+003   1.370800000000E+003 
  1.359900000000E+003   1.366900000000E+003   1.386800000000E+003   1.356600000000E+003   1.345800000000E+003   1.353300000000E+003   1.364800000000E+003   1.368400000000E+003   1.376900000000E+003   1.372300000000E+003 
  1.346400000000E+003 
  1.000000000000E+030   1.000000000000E+030   1.000000000000E+030   1.000000000000E+030   1.000000000000E+030   1.000000000000E+030   1.000000000000E+030   1.000000000000E+030   1.000000000000E+030   1.000000000000E+030 
  1.000000000000E+030   1.000000000000E+030   1.000000000000E+030   1.000000000000E+030   1.000000000000E+030   1.000000000000E+030   1.000000000000E+030   1.000000000000E+030   1.000000000000E+030   1.000000000000E+030 
  1.000000000000E+030   1.000000000000E+030   1.000000000000E+030   1.000000000000E+030   1.000000000000E+030   1.000000000000E+030   1.000000000000E+030   1.000000000000E+030   1.000000000000E+030   1.000000000000E+030 
  1.000000000000E+030   1.000000000000E+030   1.000000000000E+030   1.000000000000E+030   1.000000000000E+030   1.000000000000E+030   1.000000000000E+030   1.000000000000E+030   1.000000000000E+030   1.000000000000E+030 
  1.000000000000E+030   1.000000000000E+030   1.000000000000E+030   1.000000000000E+030   1.000000000000E+030   1.000000000000E+030   1.000000000000E+030   1.000000000000E+030   1.000000000000E+030   1.000000000000E+030 
  1.000000000000E+030   9.163700000000E+002   9.223500000000E+002   8.746100000000E+002   8.353400000000E+002   7.802800000000E+002   7.224000000000E+002   7.938300000000E+002   7.183600000000E+002   7.483900000000E+002 
  7.202300000000E+002   6.735000000000E+002   5.835000000000E+002   5.779900000000E+002   5.831600000000E+002   5.007300000000E+002   4.787300000000E+002   4.536700000000E+002   4.283800000000E+002   4.680900000000E+002 
  5.228800000000E+002   5.574900000000E+002   5.404400000000E+002   4.591500000000E+002   4.736600000000E+002   4.955600000000E+002   5.065300000000E+002   4.565300000000E+002   3.952100000000E+002   3.487700000000E+002 
  2.763300000000E+002   2.275700000000E+002   1.707900000000E+002   1.212300000000E+002   1.182900000000E+002   1.279400000000E+002   1.371400000000E+002   1.440700000000E+002   1.615300000000E+002   2.060800000000E+002 
  2.677800000000E+002   3.238100000000E+002   4.100200000000E+002   4.536000000000E+002   4.982500000000E+002   5.412000000000E+002   5.637300000000E+002   5.423000000000E+002   6.009800000000E+002   6.858100000000E+002 
  7.289900000000E+002   6.416400000000E+002   5.828700000000E+002   5.466900000000E+002   5.823800000000E+002   5.198700000000E+002   5.107500000000E+002   5.713200000000E+002   6.744900000000E+002   6.533400000000E+002 
  6.474800000000E+002   5.771000000000E+002   5.172200000000E+002   5.202100000000E+002   5.202200000000E+002   5.385100000000E+002   5.790100000000E+002   6.156600000000E+002   6.925600000000E+002   7.932900000000E+002 
  9.083100000000E+002   9.456700000000E+002   1.012900000000E+003   1.095100000000E+003   1.061500000000E+003   9.757200000000E+002   8.602400000000E+002   7.675000000000E+002   6.925800000000E+002   6.704800000000E+002 
  6.642600000000E+002   6.781800000000E+002   6.097100000000E+002   5.638400000000E+002   5.485100000000E+002   5.306700000000E+002   5.083500000000E+002   4.824400000000E+002   4.764200000000E+002   4.748900000000E+002 
  4.452500000000E+002   4.256500000000E+002   4.152100000000E+002   3.995800000000E+002   3.861100000000E+002   3.702600000000E+002   3.620800000000E+002   3.614500000000E+002   3.610200000000E+002   3.570800000000E+002 
  3.693100000000E+002   3.838900000000E+002   3.879800000000E+002   3.875800000000E+002   3.899000000000E+002   4.002600000000E+002   4.197100000000E+002   4.529300000000E+002   4.235200000000E+002   4.567900000000E+002 
  4.652000000000E+002   4.451800000000E+002   4.558800000000E+002   4.710800000000E+002   4.803900000000E+002   5.113800000000E+002   5.668600000000E+002   6.256900000000E+002   5.983200000000E+002   5.209600000000E+002 
  5.137400000000E+002   5.517700000000E+002   5.284300000000E+002   4.695600000000E+002   4.511500000000E+002   4.276600000000E+002   4.454200000000E+002   4.373400000000E+002   3.639800000000E+002   3.579600000000E+002 
  3.602100000000E+002   3.615200000000E+002   3.617200000000E+002   3.937400000000E+002   4.610200000000E+002   4.620500000000E+002   4.803900000000E+002   5.268200000000E+002   5.810400000000E+002   7.063800000000E+002 
  7.703500000000E+002   7.794300000000E+002   7.690700000000E+002   7.514800000000E+002   8.171600000000E+002   8.608200000000E+002   9.654200000000E+002   1.102700000000E+003   1.068000000000E+003   9.874700000000E+002 
  8.851900000000E+002   8.476000000000E+002   7.966400000000E+002   6.710800000000E+002   6.362900000000E+002   6.998000000000E+002   8.607500000000E+002   8.752100000000E+002   8.096400000000E+002   8.392300000000E+002 
  8.811400000000E+002   8.125600000000E+002   7.351100000000E+002   7.260100000000E+002   7.444300000000E+002   6.574900000000E+002   6.248400000000E+002   6.189700000000E+002   6.109800000000E+002   6.131700000000E+002 
  7.094900000000E+002   7.692300000000E+002   8.298200000000E+002   9.481800000000E+002   9.943700000000E+002   1.029700000000E+003   1.090300000000E+003   1.138700000000E+003   1.184400000000E+003   1.214900000000E+003 
  1.259100000000E+003   1.315900000000E+003   1.370100000000E+003   1.396300000000E+003   1.442400000000E+003   1.517000000000E+003   1.538200000000E+003   1.513500000000E+003   1.517800000000E+003   1.482900000000E+003 
  1.433300000000E+003   1.429100000000E+003   1.393200000000E+003   1.488200000000E+003   1.566700000000E+003   1.609000000000E+003   1.526000000000E+003   1.447400000000E+003   1.377300000000E+003   1.299300000000E+003 
  1.254500000000E+003   1.183200000000E+003   1.112100000000E+003   1.086200000000E+003   1.045900000000E+003   1.094000000000E+003   1.085800000000E+003   1.091800000000E+003   1.137800000000E+003   1.115500000000E+003 
  1.187000000000E+003   1.234500000000E+003   1.294000000000E+003   1.307700000000E+003   1.287400000000E+003   1.305700000000E+003   1.363000000000E+003   1.390300000000E+003   1.381000000000E+003   1.442600000000E+003 
  1.489800000000E+003   1.492600000000E+003   1.445700000000E+003   1.416000000000E+003   1.346300000000E+003   1.285700000000E+003   1.245600000000E+003   1.254900000000E+003   1.211400000000E+003   1.175600000000E+003 
  1.110000000000E+003   1.058300000000E+003   9.944000000000E+002   9.035300000000E+002   8.519900000000E+002   8.117100000000E+002   8.208800000000E+002   8.366800000000E+002   8.527100000000E+002   8.763900000000E+002 
  9.070200000000E+002   9.418400000000E+002   9.641000000000E+002   1.005100000000E+003   1.053200000000E+003   1.104800000000E+003   1.119700000000E+003   1.154400000000E+003   1.230300000000E+003   1.222300000000E+003 
  1.263600000000E+003   1.355800000000E+003   1.449300000000E+003   1.572500000000E+003   1.648500000000E+003   1.727800000000E+003   1.831200000000E+003   1.924500000000E+003   2.007600000000E+003   2.087200000000E+003 
  2.178300000000E+003   2.249100000000E+003   2.216300000000E+003   2.165100000000E+003   2.181100000000E+003   2.235200000000E+003   2.200400000000E+003   2.111800000000E+003   1.982000000000E+003   1.870200000000E+003 
  1.740000000000E+003   1.606500000000E+003   1.524700000000E+003   1.511800000000E+003   1.505800000000E+003   1.610400000000E+003   1.747000000000E+003   1.738400000000E+003   1.693100000000E+003   1.628500000000E+003 
  1.545200000000E+003   1.530800000000E+003   1.628300000000E+003   1.630100000000E+003   1.695100000000E+003   1.718500000000E+003   1.662600000000E+003   1.545100000000E+003   1.419900000000E+003   1.408100000000E+003 
  1.369700000000E+003   1.315300000000E+003   1.316300000000E+003   1.309400000000E+003   1.319700000000E+003   1.328900000000E+003   1.335100000000E+003   1.353700000000E+003   1.387600000000E+003   1.472300000000E+003 
  1.537100000000E+003   1.628700000000E+003   1.752200000000E+003   1.715700000000E+003   1.653300000000E+003   1.542200000000E+003   1.509600000000E+003   1.436900000000E+003   1.331300000000E+003   1.341800000000E+003 
  1.332100000000E+003   1.316300000000E+003   1.305400000000E+003   1.309200000000E+003   1.310800000000E+003   1.323400000000E+003   1.333800000000E+003   1.336300000000E+003   1.338800000000E+003   1.331800000000E+003 
  1.333500000000E+003 
  1.000000000000E+030   1.000000000000E+030   1.000000000000E+030   1.000000000000E+030   1.000000000000E+030   1.000000000000E+030   1.000000000000E+030   1.000000000000E+030   1.000000000000E+030   1.000000000000E+030 
  1.000000000000E+030   1.000000000000E+030   1.000000000000E+030   1.000000000000E+030   1.000000000000E+030   1.000000000000E+030   1.000000000000E+030   1.000000000000E+030   1.000000000000E+030   1.000000000000E+030 
  1.000000000000E+030   1.000000000000E+030   1.000000000000E+030   1.000000000000E+030   1.000000000000E+030   1.000000000000E+030   1.000000000000E+030   1.000000000000E+030   1.000000000000E+030   1.000000000000E+030 
  1.000000000000E+030   1.000000000000E+030   1.000000000000E+030   1.000000000000E+030   1.000000000000E+030   1.000000000000E+030   1.000000000000E+030   1.000000000000E+030   1.000000000000E+030   1.000000000000E+030 
  1.000000000000E+030   1.000000000000E+030   1.000000000000E+030   1.000000000000E+030   1.000000000000E+030   1.000000000000E+030   1.000000000000E+030   1.000000000000E+030   1.000000000000E+030   1.000000000000E+030 
  1.000000000000E+030   8.828800000000E+002   8.208800000000E+002   7.868800000000E+002   7.351700000000E+002   7.197600000000E+002   6.362100000000E+002   7.283500000000E+002   6.339400000000E+002   6.482000000000E+002 
  7.180900000000E+002   6.820500000000E+002   6.208200000000E+002   5.445500000000E+002   5.207900000000E+002   5.182500000000E+002   4.770000000000E+002   4.224800000000E+002   5.112800000000E+002   4.838300000000E+002 
  5.296900000000E+002   6.390900000000E+002   5.902900000000E+002   5.404200000000E+002   5.523800000000E+002   5.756800000000E+002   5.943600000000E+002   4.969100000000E+002   4.393600000000E+002   3.889400000000E+002 
  3.106400000000E+002   2.559300000000E+002   1.819500000000E+002   1.161800000000E+002   1.147900000000E+002   1.242000000000E+002   1.319200000000E+002   1.492500000000E+002   1.653300000000E+002   2.006300000000E+002 
  2.625800000000E+002   3.129100000000E+002   4.007000000000E+002   4.811000000000E+002   5.085200000000E+002   5.228400000000E+002   5.059700000000E+002   4.747000000000E+002   5.045500000000E+002   5.939400000000E+002 
  6.905100000000E+002   6.380700000000E+002   5.311500000000E+002   4.614100000000E+002   5.002100000000E+002   4.695100000000E+002   4.863500000000E+002   5.628500000000E+002   5.897100000000E+002   5.590800000000E+002 
  5.475700000000E+002   5.233800000000E+002   4.729300000000E+002   4.704300000000E+002   5.530600000000E+002   5.969100000000E+002   6.401300000000E+002   6.890400000000E+002   6.678400000000E+002   7.126400000000E+002 
  8.080300000000E+002   8.837900000000E+002   9.700900000000E+002   1.100100000000E+003   1.064200000000E+003   9.926700000000E+002   8.970100000000E+002   8.157500000000E+002   7.212200000000E+002   7.472600000000E+002 
  7.028700000000E+002   7.148400000000E+002   6.630900000000E+002   6.127100000000E+002   5.621100000000E+002   5.378600000000E+002   5.282200000000E+002   4.959200000000E+002   4.975500000000E+002   4.744800000000E+002 
  4.493800000000E+002   4.322100000000E+002   4.265600000000E+002   4.043700000000E+002   3.941100000000E+002   3.828400000000E+002   3.605100000000E+002   3.584600000000E+002   3.578100000000E+002   3.557000000000E+002 
  3.553100000000E+002   3.730500000000E+002   3.834000000000E+002   3.759300000000E+002   3.746700000000E+002   3.800900000000E+002   3.912800000000E+002   4.002800000000E+002   3.918300000000E+002   4.189700000000E+002 
  4.198500000000E+002   4.255900000000E+002   4.346200000000E+002   4.477200000000E+002   4.753100000000E+002   5.140900000000E+002   5.568600000000E+002   5.712600000000E+002   6.009600000000E+002   5.014900000000E+002 
  4.495000000000E+002   4.528200000000E+002   4.622400000000E+002   4.233400000000E+002   4.015800000000E+002   3.919400000000E+002   3.728100000000E+002   3.561900000000E+002   3.550100000000E+002   3.555700000000E+002 
  3.592200000000E+002   3.603600000000E+002   3.656700000000E+002   4.562500000000E+002   5.082100000000E+002   5.422400000000E+002   5.337100000000E+002   5.224100000000E+002   5.503600000000E+002   6.310400000000E+002 
  7.084900000000E+002   8.159200000000E+002   8.934500000000E+002   8.434200000000E+002   9.133000000000E+002   9.419900000000E+002   1.018000000000E+003   1.133100000000E+003   1.114200000000E+003   1.040600000000E+003 
  9.252200000000E+002   8.599400000000E+002   7.730300000000E+002   6.861000000000E+002   6.732000000000E+002   7.498800000000E+002   9.065100000000E+002   9.315300000000E+002   8.739600000000E+002   9.084600000000E+002 