# RIV: River package file created on 2/2/2024 by ModelMuse version 5.1.1.0.
# RIV: River package file created on 10/4/2023 by ModelMuse version 4.3.0.0.
# RIV: River package file created on 3/14/2023 by ModelMuse version 5.0.0.0.
# RIV: River package file created on 10/13/2022 by ModelMuse version 4.3.0.0.
# RIV: River package file created on 10/12/2022 by ModelMuse version 4.3.0.0.
# RIV: River package file created on 10/4/2022 by ModelMuse version 4.3.0.0.
# RIV: River package file created on 10/1/2022 by ModelMuse version 4.3.0.0.
# RIV: River package file created on 9/22/2022 by ModelMuse version 5.0.0.0.
# RIV: River package file created on 9/19/2022 by ModelMuse version 4.3.0.0.
# RIV: River package file created on 9/1/2022 by ModelMuse version 4.3.0.0.
# RIV: River package file created on 8/22/2022 by ModelMuse version 4.3.0.0.
# RIV: River package file created on 8/19/2022 by ModelMuse version 4.3.0.0.
# RIV: River package file created on 7/22/2022 by ModelMuse version 4.3.0.0.
# RIV: River package file created on 7/14/2022 by ModelMuse version 5.0.0.0.
# RIV: River package file created on 7/12/2022 by ModelMuse version 5.0.0.0.
# RIV:	River	package	file	created	on	15/06/2020	by	ModelMuse	version	4.2.0.0.
# RIV:	River	package	file	created	on	25-Mar-20	by	ModelMuse	version	4.1.0.0.
# RIV:	River	package	file	created	on	12/13/2019	by	ModelMuse	version	4.1.0.0.
# MODFLOW2000	River	Package
   854     9 AUXILIARY IFACE # DataSet 2: MXACTC IRIVCB Option
   854     0 # Data Set 5: ITMP NP Stress period 1
     1    72     9  7.682000000000E+000   1.085000000000E+003   6.682000000000E+000      0 # Data Set 6: Layer Row Column Stage Cond Rbot IFACE
     1    72    10  8.302000000000E+000   1.030000000000E+003   7.302000000000E+000      0 # Data Set 6: Layer Row Column Stage Cond Rbot IFACE
     1    73    11  6.101000000000E+000   1.030000000000E+003   5.101000000000E+000      0 # Data Set 6: Layer Row Column Stage Cond Rbot IFACE
     1    74    12  6.595000000000E+000   1.030000000000E+003   5.595000000000E+000      0 # Data Set 6: Layer Row Column Stage Cond Rbot IFACE
     1    75    13  9.969000000000E+000   1.025000000000E+003   8.969000000000E+000      0 # Data Set 6: Layer Row Column Stage Cond Rbot IFACE
     1    75    14  1.098400000000E+001   1.025000000000E+003   9.984000000000E+000      0 # Data Set 6: Layer Row Column Stage Cond Rbot IFACE
     1    76    15  9.329000000000E+000   1.025000000000E+003   8.329000000000E+000      0 # Data Set 6: Layer Row Column Stage Cond Rbot IFACE
     1    77    16  8.140000000000E+000   1.025000000000E+003   7.140000000000E+000      0 # Data Set 6: Layer Row Column Stage Cond Rbot IFACE
     1    77    17  9.977000000000E+000   1.025000000000E+003   8.977000000000E+000      0 # Data Set 6: Layer Row Column Stage Cond Rbot IFACE
     1    76    18  1.550100000000E+001   1.025000000000E+003   1.450100000000E+001      0 # Data Set 6: Layer Row Column Stage Cond Rbot IFACE
     1    77    18  9.337000000000E+000   1.025000000000E+003   8.337000000000E+000      0 # Data Set 6: Layer Row Column Stage Cond Rbot IFACE
     1    76    19  1.846900000000E+001   1.025000000000E+003   1.746900000000E+001      0 # Data Set 6: Layer Row Column Stage Cond Rbot IFACE
     1    77    19  1.181100000000E+001   1.025000000000E+003   1.081100000000E+001      0 # Data Set 6: Layer Row Column Stage Cond Rbot IFACE
     1    78    19  1.004900000000E+001   1.025000000000E+003   9.049000000000E+000      0 # Data Set 6: Layer Row Column Stage Cond Rbot IFACE
     1    78    20  1.016200000000E+001   1.020000000000E+003   9.162000000000E+000      0 # Data Set 6: Layer Row Column Stage Cond Rbot IFACE
     1    78    21  1.176900000000E+001   1.020000000000E+003   1.076900000000E+001      0 # Data Set 6: Layer Row Column Stage Cond Rbot IFACE
     1    78    22  1.024100000000E+001   1.020000000000E+003   9.241000000000E+000      0 # Data Set 6: Layer Row Column Stage Cond Rbot IFACE
     1    77    23  1.109400000000E+001   1.020000000000E+003   1.009400000000E+001      0 # Data Set 6: Layer Row Column Stage Cond Rbot IFACE
     1    77    24  1.340800000000E+001   1.020000000000E+003   1.240800000000E+001      0 # Data Set 6: Layer Row Column Stage Cond Rbot IFACE
     1    77    25  1.067400000000E+001   1.020000000000E+003   9.674000000000E+000      0 # Data Set 6: Layer Row Column Stage Cond Rbot IFACE
     1    73    26  2.369500000000E+001   1.015000000000E+003   2.269500000000E+001      0 # Data Set 6: Layer Row Column Stage Cond Rbot IFACE
     1    78    26  1.220900000000E+001   1.020000000000E+003   1.120900000000E+001      0 # Data Set 6: Layer Row Column Stage Cond Rbot IFACE
     1    79    26  1.215600000000E+001   1.015000000000E+003   1.115600000000E+001      0 # Data Set 6: Layer Row Column Stage Cond Rbot IFACE
     1    72    27  7.007800000000E+001   1.015000000000E+003   6.907800000000E+001      0 # Data Set 6: Layer Row Column Stage Cond Rbot IFACE
     1    80    27  1.154500000000E+001   1.015000000000E+003   1.054500000000E+001      0 # Data Set 6: Layer Row Column Stage Cond Rbot IFACE
     1    72    28  7.176800000000E+001   1.015000000000E+003   7.076800000000E+001      0 # Data Set 6: Layer Row Column Stage Cond Rbot IFACE
     1    81    28  1.325500000000E+001   1.015000000000E+003   1.225500000000E+001      0 # Data Set 6: Layer Row Column Stage Cond Rbot IFACE
     1    79    29  1.250600000000E+001   1.015000000000E+003   1.150600000000E+001      0 # Data Set 6: Layer Row Column Stage Cond Rbot IFACE
     1    81    29  1.460000000000E+001   1.015000000000E+003   1.360000000000E+001      0 # Data Set 6: Layer Row Column Stage Cond Rbot IFACE
     1    74    30  5.691700000000E+001   1.015000000000E+003   5.591700000000E+001      0 # Data Set 6: Layer Row Column Stage Cond Rbot IFACE
     1    82    30  1.390600000000E+001   1.015000000000E+003   1.290600000000E+001      0 # Data Set 6: Layer Row Column Stage Cond Rbot IFACE
     1    74    31  6.531900000000E+001   1.015000000000E+003   6.431900000000E+001      0 # Data Set 6: Layer Row Column Stage Cond Rbot IFACE
     1    81    31  1.538700000000E+001   1.015000000000E+003   1.438700000000E+001      0 # Data Set 6: Layer Row Column Stage Cond Rbot IFACE
     1    83    31  1.262300000000E+001   1.015000000000E+003   1.162300000000E+001      0 # Data Set 6: Layer Row Column Stage Cond Rbot IFACE
     1    76    32  3.731200000000E+001   1.015000000000E+003   3.631200000000E+001      0 # Data Set 6: Layer Row Column Stage Cond Rbot IFACE
     1    82    32  1.658900000000E+001   1.015000000000E+003   1.558900000000E+001      0 # Data Set 6: Layer Row Column Stage Cond Rbot IFACE
     1    83    32  1.540200000000E+001   1.015000000000E+003   1.440200000000E+001      0 # Data Set 6: Layer Row Column Stage Cond Rbot IFACE
     1    83    33  1.575200000000E+001   1.015000000000E+003   1.475200000000E+001      0 # Data Set 6: Layer Row Column Stage Cond Rbot IFACE
     1    84    33  1.256600000000E+001   1.015000000000E+003   1.156600000000E+001      0 # Data Set 6: Layer Row Column Stage Cond Rbot IFACE
     1    77    34  1.987500000000E+001   1.015000000000E+003   1.887500000000E+001      0 # Data Set 6: Layer Row Column Stage Cond Rbot IFACE
     1    83    34  1.643100000000E+001   1.015000000000E+003   1.543100000000E+001      0 # Data Set 6: Layer Row Column Stage Cond Rbot IFACE
     1    84    34  1.367400000000E+001   1.015000000000E+003   1.267400000000E+001      0 # Data Set 6: Layer Row Column Stage Cond Rbot IFACE
     1    76    35  3.789700000000E+001   1.015000000000E+003   3.689700000000E+001      0 # Data Set 6: Layer Row Column Stage Cond Rbot IFACE
     1    83    35  1.624800000000E+001   1.010000000000E+003   1.524800000000E+001      0 # Data Set 6: Layer Row Column Stage Cond Rbot IFACE
     1    84    35  1.534400000000E+001   1.010000000000E+003   1.434400000000E+001      0 # Data Set 6: Layer Row Column Stage Cond Rbot IFACE
     1    85    35  1.519700000000E+001   1.010000000000E+003   1.419700000000E+001      0 # Data Set 6: Layer Row Column Stage Cond Rbot IFACE
     1    77    36  2.750100000000E+001   1.015000000000E+003   2.650100000000E+001      0 # Data Set 6: Layer Row Column Stage Cond Rbot IFACE
     1    84    36  1.750800000000E+001   1.010000000000E+003   1.650800000000E+001      0 # Data Set 6: Layer Row Column Stage Cond Rbot IFACE
     1    85    36  1.717900000000E+001   1.010000000000E+003   1.617900000000E+001      0 # Data Set 6: Layer Row Column Stage Cond Rbot IFACE
     1    84    37  1.815100000000E+001   1.010000000000E+003   1.715100000000E+001      0 # Data Set 6: Layer Row Column Stage Cond Rbot IFACE
     1    85    37  1.664100000000E+001   1.010000000000E+003   1.564100000000E+001      0 # Data Set 6: Layer Row Column Stage Cond Rbot IFACE
     1    86    37  1.677600000000E+001   1.010000000000E+003   1.577600000000E+001      0 # Data Set 6: Layer Row Column Stage Cond Rbot IFACE
     1    85    38  1.800000000000E+001   1.010000000000E+003   1.700000000000E+001      0 # Data Set 6: Layer Row Column Stage Cond Rbot IFACE
     1    86    38  1.801200000000E+001   1.010000000000E+003   1.701200000000E+001      0 # Data Set 6: Layer Row Column Stage Cond Rbot IFACE
     1    87    38  1.571700000000E+001   1.010000000000E+003   1.471700000000E+001      0 # Data Set 6: Layer Row Column Stage Cond Rbot IFACE
     1    86    39  1.717300000000E+001   1.010000000000E+003   1.617300000000E+001      0 # Data Set 6: Layer Row Column Stage Cond Rbot IFACE
     1    87    39  1.568000000000E+001   1.010000000000E+003   1.468000000000E+001      0 # Data Set 6: Layer Row Column Stage Cond Rbot IFACE
     1    79    40  1.907200000000E+001   1.015000000000E+003   1.807200000000E+001      0 # Data Set 6: Layer Row Column Stage Cond Rbot IFACE
     1    86    40  1.719300000000E+001   1.010000000000E+003   1.619300000000E+001      0 # Data Set 6: Layer Row Column Stage Cond Rbot IFACE
     1    87    40  1.727400000000E+001   1.010000000000E+003   1.627400000000E+001      0 # Data Set 6: Layer Row Column Stage Cond Rbot IFACE
     1    74    41  3.223100000000E+001   1.015000000000E+003   3.123100000000E+001      0 # Data Set 6: Layer Row Column Stage Cond Rbot IFACE
     1    76    41  4.807700000000E+001   1.015000000000E+003   4.707700000000E+001      0 # Data Set 6: Layer Row Column Stage Cond Rbot IFACE
     1    85    41  2.056900000000E+001   1.010000000000E+003   1.956900000000E+001      0 # Data Set 6: Layer Row Column Stage Cond Rbot IFACE
     1    86    41  1.721700000000E+001   1.010000000000E+003   1.621700000000E+001      0 # Data Set 6: Layer Row Column Stage Cond Rbot IFACE
     1    72    42  6.390800000000E+001   1.015000000000E+003   6.290800000000E+001      0 # Data Set 6: Layer Row Column Stage Cond Rbot IFACE
     1    73    42  3.641000000000E+001   1.015000000000E+003   3.541000000000E+001      0 # Data Set 6: Layer Row Column Stage Cond Rbot IFACE
     1    75    42  6.880900000000E+001   1.015000000000E+003   6.780900000000E+001      0 # Data Set 6: Layer Row Column Stage Cond Rbot IFACE
     1    77    42  5.088100000000E+001   1.015000000000E+003   4.988100000000E+001      0 # Data Set 6: Layer Row Column Stage Cond Rbot IFACE
     1    85    42  1.776000000000E+001   9.200000000000E+002   1.676000000000E+001      0 # Data Set 6: Layer Row Column Stage Cond Rbot IFACE
     1    86    42  1.700000000000E+001   9.200000000000E+002   1.600000000000E+001      0 # Data Set 6: Layer Row Column Stage Cond Rbot IFACE
     1    73    43  4.933100000000E+001   1.015000000000E+003   4.833100000000E+001      0 # Data Set 6: Layer Row Column Stage Cond Rbot IFACE
     1    86    43  1.899000000000E+001   9.200000000000E+002   1.799000000000E+001      0 # Data Set 6: Layer Row Column Stage Cond Rbot IFACE
     1    85    44  2.077400000000E+001   1.005000000000E+003   1.977400000000E+001      0 # Data Set 6: Layer Row Column Stage Cond Rbot IFACE
     1    86    44  1.804600000000E+001   1.005000000000E+003   1.704600000000E+001      0 # Data Set 6: Layer Row Column Stage Cond Rbot IFACE
     1    85    45  2.079800000000E+001   1.005000000000E+003   1.979800000000E+001      0 # Data Set 6: Layer Row Column Stage Cond Rbot IFACE
     1    86    45  1.663400000000E+001   1.005000000000E+003   1.563400000000E+001      0 # Data Set 6: Layer Row Column Stage Cond Rbot IFACE
     1    85    46  2.157700000000E+001   1.005000000000E+003   2.057700000000E+001      0 # Data Set 6: Layer Row Column Stage Cond Rbot IFACE
     1    86    46  1.708900000000E+001   1.005000000000E+003   1.608900000000E+001      0 # Data Set 6: Layer Row Column Stage Cond Rbot IFACE
     1    87    46  1.739300000000E+001   1.005000000000E+003   1.639300000000E+001      0 # Data Set 6: Layer Row Column Stage Cond Rbot IFACE
     1    86    47  1.813500000000E+001   1.005000000000E+003   1.713500000000E+001      0 # Data Set 6: Layer Row Column Stage Cond Rbot IFACE
     1    87    47  1.846800000000E+001   1.005000000000E+003   1.746800000000E+001      0 # Data Set 6: Layer Row Column Stage Cond Rbot IFACE
     1    88    48  1.998500000000E+001   1.300000000000E+002   1.898500000000E+001      0 # Data Set 6: Layer Row Column Stage Cond Rbot IFACE
     1    89    48  2.226600000000E+001   1.300000000000E+002   2.126600000000E+001      0 # Data Set 6: Layer Row Column Stage Cond Rbot IFACE
     1    90    48  2.001000000000E+001   2.600000000000E+001   1.901000000000E+001      0 # Data Set 6: Layer Row Column Stage Cond Rbot IFACE
     1    88    49  1.648500000000E+001   9.200000000000E+002   1.548500000000E+001      0 # Data Set 6: Layer Row Column Stage Cond Rbot IFACE
     1    91    49  2.207200000000E+001   1.830000000000E+002   2.107200000000E+001      0 # Data Set 6: Layer Row Column Stage Cond Rbot IFACE
     1    89    50  2.123500000000E+001   9.200000000000E+002   2.023500000000E+001      0 # Data Set 6: Layer Row Column Stage Cond Rbot IFACE
     1    91    50  2.382000000000E+001   2.500000000000E+002   2.282000000000E+001      0 # Data Set 6: Layer Row Column Stage Cond Rbot IFACE
     1    88    51  2.386500000000E+001   9.200000000000E+002   2.286500000000E+001      0 # Data Set 6: Layer Row Column Stage Cond Rbot IFACE
     1    89    51  2.311200000000E+001   1.840000000000E+002   2.211200000000E+001      0 # Data Set 6: Layer Row Column Stage Cond Rbot IFACE
     1    92    51  2.335200000000E+001   2.440000000000E+002   2.235200000000E+001      0 # Data Set 6: Layer Row Column Stage Cond Rbot IFACE
     1    88    52  2.392400000000E+001   1.840000000000E+002   2.292400000000E+001      0 # Data Set 6: Layer Row Column Stage Cond Rbot IFACE
     1    89    52  2.238200000000E+001   1.840000000000E+002   2.138200000000E+001      0 # Data Set 6: Layer Row Column Stage Cond Rbot IFACE
     1    93    52  2.486400000000E+001   1.820000000000E+002   2.386400000000E+001      0 # Data Set 6: Layer Row Column Stage Cond Rbot IFACE
     1    89    53  1.900100000000E+001   1.840000000000E+002   1.800100000000E+001      0 # Data Set 6: Layer Row Column Stage Cond Rbot IFACE
     1    93    53  2.461300000000E+001   1.820000000000E+002   2.361300000000E+001      0 # Data Set 6: Layer Row Column Stage Cond Rbot IFACE
     1    87    54  2.358000000000E+001   1.840000000000E+002   2.258000000000E+001      0 # Data Set 6: Layer Row Column Stage Cond Rbot IFACE
     1    88    54  1.977200000000E+001   1.840000000000E+002   1.877200000000E+001      0 # Data Set 6: Layer Row Column Stage Cond Rbot IFACE
     1    92    54  2.583200000000E+001   2.292000000000E+002   2.483200000000E+001      0 # Data Set 6: Layer Row Column Stage Cond Rbot IFACE
     1    81    55  4.517800000000E+001   1.840000000000E+002   4.417800000000E+001      0 # Data Set 6: Layer Row Column Stage Cond Rbot IFACE
     1    82    55  3.727800000000E+001   1.840000000000E+002   3.627800000000E+001      0 # Data Set 6: Layer Row Column Stage Cond Rbot IFACE
     1    88    55  2.081100000000E+001   1.830000000000E+002   1.981100000000E+001      0 # Data Set 6: Layer Row Column Stage Cond Rbot IFACE
     1    92    55  2.674900000000E+001   2.240000000000E+002   2.574900000000E+001      0 # Data Set 6: Layer Row Column Stage Cond Rbot IFACE
     1    82    56  4.716400000000E+001   1.840000000000E+002   4.616400000000E+001      0 # Data Set 6: Layer Row Column Stage Cond Rbot IFACE
     1    83    56  4.234600000000E+001   1.840000000000E+002   4.134600000000E+001      0 # Data Set 6: Layer Row Column Stage Cond Rbot IFACE
     1    88    56  2.220400000000E+001   1.980000000000E+003   2.120400000000E+001      0 # Data Set 6: Layer Row Column Stage Cond Rbot IFACE
     1    92    56  2.776800000000E+001   2.140000000000E+002   2.676800000000E+001      0 # Data Set 6: Layer Row Column Stage Cond Rbot IFACE
     1    84    57  3.761300000000E+001   1.840000000000E+002   3.661300000000E+001      0 # Data Set 6: Layer Row Column Stage Cond Rbot IFACE
     1    88    57  2.217500000000E+001   1.980000000000E+003   2.117500000000E+001      0 # Data Set 6: Layer Row Column Stage Cond Rbot IFACE
     1    92    57  2.783000000000E+001   2.140000000000E+002   2.683000000000E+001      0 # Data Set 6: Layer Row Column Stage Cond Rbot IFACE
     1    89    58  2.398700000000E+001   1.980000000000E+003   2.298700000000E+001      0 # Data Set 6: Layer Row Column Stage Cond Rbot IFACE
     1    93    58  2.861700000000E+001   2.092000000000E+002   2.761700000000E+001      0 # Data Set 6: Layer Row Column Stage Cond Rbot IFACE
     1    89    59  2.285000000000E+001   1.980000000000E+003   2.185000000000E+001      0 # Data Set 6: Layer Row Column Stage Cond Rbot IFACE
     1    94    59  3.081200000000E+001   2.052000000000E+002   2.981200000000E+001      0 # Data Set 6: Layer Row Column Stage Cond Rbot IFACE
     1    89    60  2.464100000000E+001   1.980000000000E+003   2.364100000000E+001      0 # Data Set 6: Layer Row Column Stage Cond Rbot IFACE
     1    94    60  3.252300000000E+001   1.952000000000E+002   3.152300000000E+001      0 # Data Set 6: Layer Row Column Stage Cond Rbot IFACE
     1    88    61  2.724100000000E+001   1.820000000000E+002   2.624100000000E+001      0 # Data Set 6: Layer Row Column Stage Cond Rbot IFACE
     1    94    61  3.234200000000E+001   1.952000000000E+002   3.134200000000E+001      0 # Data Set 6: Layer Row Column Stage Cond Rbot IFACE
     1    88    62  2.739000000000E+001   1.820000000000E+002   2.639000000000E+001      0 # Data Set 6: Layer Row Column Stage Cond Rbot IFACE
     1    94    62  3.256400000000E+001   1.900000000000E+002   3.156400000000E+001      0 # Data Set 6: Layer Row Column Stage Cond Rbot IFACE
     1    88    63  2.515400000000E+001   9.100000000000E+002   2.415400000000E+001      0 # Data Set 6: Layer Row Column Stage Cond Rbot IFACE
     1    94    63  3.399500000000E+001   1.852000000000E+002   3.299500000000E+001      0 # Data Set 6: Layer Row Column Stage Cond Rbot IFACE
     1    89    64  2.769800000000E+001   9.100000000000E+002   2.669800000000E+001      0 # Data Set 6: Layer Row Column Stage Cond Rbot IFACE
     1    95    64  3.521300000000E+001   1.812000000000E+002   3.421300000000E+001      0 # Data Set 6: Layer Row Column Stage Cond Rbot IFACE
     1    88    65  2.837400000000E+001   9.050000000000E+002   2.737400000000E+001      0 # Data Set 6: Layer Row Column Stage Cond Rbot IFACE
     1    95    65  3.799600000000E+001   1.760000000000E+002   3.699600000000E+001      0 # Data Set 6: Layer Row Column Stage Cond Rbot IFACE
     1    88    66  3.075700000000E+001   9.050000000000E+002   2.975700000000E+001      0 # Data Set 6: Layer Row Column Stage Cond Rbot IFACE
     1    95    66  4.000000000000E+001   1.720000000000E+002   3.900000000000E+001      0 # Data Set 6: Layer Row Column Stage Cond Rbot IFACE
     1    88    67  2.934800000000E+001   9.050000000000E+002   2.834800000000E+001      0 # Data Set 6: Layer Row Column Stage Cond Rbot IFACE
     1    95    67  4.155400000000E+001   1.672000000000E+002   4.055400000000E+001      0 # Data Set 6: Layer Row Column Stage Cond Rbot IFACE
     1    88    68  3.100000000000E+001   9.050000000000E+002   3.000000000000E+001      0 # Data Set 6: Layer Row Column Stage Cond Rbot IFACE
     1    89    68  3.016000000000E+001   9.050000000000E+002   2.916000000000E+001      0 # Data Set 6: Layer Row Column Stage Cond Rbot IFACE
     1    96    68  4.417500000000E+001   1.632000000000E+002   4.317500000000E+001      0 # Data Set 6: Layer Row Column Stage Cond Rbot IFACE
     1    87    69  3.065400000000E+001   9.000000000000E+002   2.965400000000E+001      0 # Data Set 6: Layer Row Column Stage Cond Rbot IFACE
     1    88    69  3.138100000000E+001   9.000000000000E+002   3.038100000000E+001      0 # Data Set 6: Layer Row Column Stage Cond Rbot IFACE
     1    97    69  4.464300000000E+001   1.580000000000E+002   4.364300000000E+001      0 # Data Set 6: Layer Row Column Stage Cond Rbot IFACE
     1    87    70  3.187900000000E+001   9.000000000000E+002   3.087900000000E+001      0 # Data Set 6: Layer Row Column Stage Cond Rbot IFACE
     1    88    70  3.100000000000E+001   9.000000000000E+002   3.000000000000E+001      0 # Data Set 6: Layer Row Column Stage Cond Rbot IFACE
     1    98    70  4.855100000000E+001   1.540000000000E+002   4.755100000000E+001      0 # Data Set 6: Layer Row Column Stage Cond Rbot IFACE
     1    86    71  3.347700000000E+001   9.000000000000E+002   3.247700000000E+001      0 # Data Set 6: Layer Row Column Stage Cond Rbot IFACE
     1    87    71  3.242000000000E+001   9.000000000000E+002   3.142000000000E+001      0 # Data Set 6: Layer Row Column Stage Cond Rbot IFACE
     1    98    71  5.086000000000E+001   1.492000000000E+002   4.986000000000E+001      0 # Data Set 6: Layer Row Column Stage Cond Rbot IFACE
     1    99    71  5.035600000000E+001   1.492000000000E+002   4.935600000000E+001      0 # Data Set 6: Layer Row Column Stage Cond Rbot IFACE
     1    86    72  3.393100000000E+001   9.000000000000E+002   3.293100000000E+001      0 # Data Set 6: Layer Row Column Stage Cond Rbot IFACE
     1    99    72  5.234300000000E+001   1.412000000000E+002   5.134300000000E+001      0 # Data Set 6: Layer Row Column Stage Cond Rbot IFACE
     1    86    73  3.503100000000E+001   8.950000000000E+002   3.403100000000E+001      0 # Data Set 6: Layer Row Column Stage Cond Rbot IFACE
     1   100    73  5.200600000000E+001   1.412000000000E+002   5.100600000000E+001      0 # Data Set 6: Layer Row Column Stage Cond Rbot IFACE
     1   101    73  5.322600000000E+001   1.360000000000E+002   5.222600000000E+001      0 # Data Set 6: Layer Row Column Stage Cond Rbot IFACE
     1    85    74  3.719400000000E+001   8.950000000000E+002   3.619400000000E+001      0 # Data Set 6: Layer Row Column Stage Cond Rbot IFACE
     1   102    74  5.450900000000E+001   1.320000000000E+002   5.350900000000E+001      0 # Data Set 6: Layer Row Column Stage Cond Rbot IFACE
     1    85    75  3.488200000000E+001   8.950000000000E+002   3.388200000000E+001      0 # Data Set 6: Layer Row Column Stage Cond Rbot IFACE
     1   103    75  5.580800000000E+001   1.280000000000E+002   5.480800000000E+001      0 # Data Set 6: Layer Row Column Stage Cond Rbot IFACE
     1   107    75  6.162400000000E+001   1.740000000000E+002   6.062400000000E+001      0 # Data Set 6: Layer Row Column Stage Cond Rbot IFACE
     1   108    75  6.200000000000E+001   1.080000000000E+003   6.100000000000E+001      0 # Data Set 6: Layer Row Column Stage Cond Rbot IFACE
     1   120    75  8.223800000000E+001   6.480000000000E+002   8.123800000000E+001      0 # Data Set 6: Layer Row Column Stage Cond Rbot IFACE
     1    85    76  3.599100000000E+001   8.950000000000E+002   3.499100000000E+001      0 # Data Set 6: Layer Row Column Stage Cond Rbot IFACE
     1    86    76  3.779600000000E+001   8.950000000000E+002   3.679600000000E+001      0 # Data Set 6: Layer Row Column Stage Cond Rbot IFACE
     1   100    76  6.800900000000E+001   1.412000000000E+002   6.700900000000E+001      0 # Data Set 6: Layer Row Column Stage Cond Rbot IFACE
     1   104    76  5.725600000000E+001   1.240000000000E+002   5.625600000000E+001      0 # Data Set 6: Layer Row Column Stage Cond Rbot IFACE
     1   105    76  5.900000000000E+001   1.200000000000E+002   5.800000000000E+001      0 # Data Set 6: Layer Row Column Stage Cond Rbot IFACE
     1   106    76  6.011500000000E+001   1.160000000000E+002   5.911500000000E+001      0 # Data Set 6: Layer Row Column Stage Cond Rbot IFACE
     1   109    76  6.357500000000E+001   1.040000000000E+003   6.257500000000E+001      0 # Data Set 6: Layer Row Column Stage Cond Rbot IFACE
     1   110    76  6.384300000000E+001   1.000000000000E+003   6.284300000000E+001      0 # Data Set 6: Layer Row Column Stage Cond Rbot IFACE
     1   111    76  6.608200000000E+001   9.640000000000E+002   6.508200000000E+001      0 # Data Set 6: Layer Row Column Stage Cond Rbot IFACE
     1   119    76  7.987100000000E+001   6.800000000000E+002   7.887100000000E+001      0 # Data Set 6: Layer Row Column Stage Cond Rbot IFACE
     1   120    76  8.056400000000E+001   6.480000000000E+002   7.956400000000E+001      0 # Data Set 6: Layer Row Column Stage Cond Rbot IFACE
     1    85    77  3.740400000000E+001   8.950000000000E+002   3.640400000000E+001      0 # Data Set 6: Layer Row Column Stage Cond Rbot IFACE
     1    86    77  3.795000000000E+001   8.950000000000E+002   3.695000000000E+001      0 # Data Set 6: Layer Row Column Stage Cond Rbot IFACE
     1    87    77  3.658000000000E+001   8.950000000000E+002   3.558000000000E+001      0 # Data Set 6: Layer Row Column Stage Cond Rbot IFACE
     1   112    77  6.849800000000E+001   8.920000000000E+002   6.749800000000E+001      0 # Data Set 6: Layer Row Column Stage Cond Rbot IFACE
     1   113    77  6.812700000000E+001   8.920000000000E+002   6.712700000000E+001      0 # Data Set 6: Layer Row Column Stage Cond Rbot IFACE
     1   114    77  7.026000000000E+001   8.560000000000E+002   6.926000000000E+001      0 # Data Set 6: Layer Row Column Stage Cond Rbot IFACE
     1   115    77  7.277900000000E+001   8.200000000000E+002   7.177900000000E+001      0 # Data Set 6: Layer Row Column Stage Cond Rbot IFACE
     1   116    77  7.647400000000E+001   7.840000000000E+002   7.547400000000E+001      0 # Data Set 6: Layer Row Column Stage Cond Rbot IFACE
     1   117    77  7.754900000000E+001   7.480000000000E+002   7.654900000000E+001      0 # Data Set 6: Layer Row Column Stage Cond Rbot IFACE
     1   118    77  7.841300000000E+001   7.120000000000E+002   7.741300000000E+001      0 # Data Set 6: Layer Row Column Stage Cond Rbot IFACE
     1   119    77  7.971400000000E+001   6.800000000000E+002   7.871400000000E+001      0 # Data Set 6: Layer Row Column Stage Cond Rbot IFACE
     1   120    77  8.066400000000E+001   6.480000000000E+002   7.966400000000E+001      0 # Data Set 6: Layer Row Column Stage Cond Rbot IFACE
     1   121    77  8.218000000000E+001   6.160000000000E+002   8.118000000000E+001      0 # Data Set 6: Layer Row Column Stage Cond Rbot IFACE
     1    84    78  3.952700000000E+001   8.950000000000E+002   3.852700000000E+001      0 # Data Set 6: Layer Row Column Stage Cond Rbot IFACE
     1    85    78  3.799900000000E+001   8.950000000000E+002   3.699900000000E+001      0 # Data Set 6: Layer Row Column Stage Cond Rbot IFACE
     1    86    78  3.821500000000E+001   8.950000000000E+002   3.721500000000E+001      0 # Data Set 6: Layer Row Column Stage Cond Rbot IFACE
     1    87    78  3.840800000000E+001   8.950000000000E+002   3.740800000000E+001      0 # Data Set 6: Layer Row Column Stage Cond Rbot IFACE
     1   115    78  7.202600000000E+001   8.200000000000E+002   7.102600000000E+001      0 # Data Set 6: Layer Row Column Stage Cond Rbot IFACE
     1   116    78  7.543800000000E+001   7.840000000000E+002   7.443800000000E+001      0 # Data Set 6: Layer Row Column Stage Cond Rbot IFACE
     1   117    78  7.770300000000E+001   7.480000000000E+002   7.670300000000E+001      0 # Data Set 6: Layer Row Column Stage Cond Rbot IFACE
     1   120    78  8.005700000000E+001   6.480000000000E+002   7.905700000000E+001      0 # Data Set 6: Layer Row Column Stage Cond Rbot IFACE
     1   121    78  8.138900000000E+001   6.160000000000E+002   8.038900000000E+001      0 # Data Set 6: Layer Row Column Stage Cond Rbot IFACE
     1   122    78  8.401000000000E+001   5.840000000000E+002   8.301000000000E+001      0 # Data Set 6: Layer Row Column Stage Cond Rbot IFACE
     1    86    79  3.938200000000E+001   8.900000000000E+002   3.838200000000E+001      0 # Data Set 6: Layer Row Column Stage Cond Rbot IFACE
     1    87    79  4.010000000000E+001   8.900000000000E+002   3.910000000000E+001      0 # Data Set 6: Layer Row Column Stage Cond Rbot IFACE
     1   116    79  7.404800000000E+001   7.840000000000E+002   7.304800000000E+001      0 # Data Set 6: Layer Row Column Stage Cond Rbot IFACE
     1   121    79  8.275600000000E+001   6.160000000000E+002   8.175600000000E+001      0 # Data Set 6: Layer Row Column Stage Cond Rbot IFACE
     1   122    79  8.585500000000E+001   5.840000000000E+002   8.485500000000E+001      0 # Data Set 6: Layer Row Column Stage Cond Rbot IFACE
     1   123    79  8.803700000000E+001   8.650000000000E+002   8.703700000000E+001      0 # Data Set 6: Layer Row Column Stage Cond Rbot IFACE
     1    88    80  4.114900000000E+001   8.900000000000E+002   4.014900000000E+001      0 # Data Set 6: Layer Row Column Stage Cond Rbot IFACE
     1   124    80  9.025800000000E+001   5.200000000000E+002   8.925800000000E+001      0 # Data Set 6: Layer Row Column Stage Cond Rbot IFACE