xul  2.722000000000E+005 
yul  6.425600000000E+006 
rotation  0.000000000000E+000 
length_units meters
time_units days
start_date 12/30/1899
start_time 0:0:0
model MODFLOW-NWT
epsg 
